*SPEF "IEEE 1481-1998"
*DESIGN "P4_adder_NBIT32"
*DATE "Tue Jun 16 16:49:08 2020"
*VENDOR "Cadence Design Systems, Inc."
*PROGRAM "Innovus"
*VERSION "17.11-s080_1"
*DESIGN_FLOW "COUPLING C" "PIN_CAP NONE" "NAME_SCOPE LOCAL"
*DIVIDER /
*DELIMITER :
*BUS_DELIMITER []
*T_UNIT 1 NS
*C_UNIT 1 PF
*R_UNIT 1 OHM
*L_UNIT 1 HENRY

// MMMC spef file for corner 'standard'

*NAME_MAP

*1 FE_OFN25_reset
*2 FE_OFN24_reset
*3 Sum_gen/sum_gen_8/MUX/FE_RN_141_0
*4 Sum_gen/sum_gen_8/MUX/FE_RN_140_0
*5 Sum_gen/sum_gen_8/MUX/FE_RN_139_0
*6 Sum_gen/sum_gen_8/ADDER0/FE_RN_137_0
*7 Sum_gen/sum_gen_8/ADDER0/FE_RN_136_0
*8 Sum_gen/sum_gen_8/ADDER0/FE_RN_133_0
*9 Sum_gen/sum_gen_8/ADDER0/FE_RN_132_0
*10 Sum_gen/sum_gen_8/ADDER0/FE_RN_131_0
*11 Sum_gen/sum_gen_8/ADDER0/FE_RN_130_0
*12 Sum_gen/sum_gen_8/ADDER0/FE_RN_129_0
*13 Sum_gen/sum_gen_8/ADDER0/FE_RN_128_0
*14 Sum_gen/sum_gen_8/ADDER0/FE_RN_127_0
*15 Sum_gen/sum_gen_7/ADDER1/FE_RN_125_0
*16 Sum_gen/sum_gen_7/ADDER1/FE_RN_124_0
*17 Sum_gen/sum_gen_7/ADDER1/FE_RN_121_0
*18 Sum_gen/sum_gen_7/ADDER1/FE_RN_120_0
*19 Sum_gen/sum_gen_7/ADDER1/FE_RN_119_0
*20 Sum_gen/sum_gen_7/ADDER1/FE_RN_118_0
*21 Sum_gen/sum_gen_7/ADDER1/FE_RN_117_0
*22 Sum_gen/sum_gen_7/ADDER1/FE_RN_116_0
*23 Sum_gen/sum_gen_7/ADDER1/FE_RN_115_0
*24 Carry_gen/FE_RN_1
*25 Sum_gen/sum_gen_4/FE_OCPN23_in_2_13
*26 Carry_gen/FE_RN_114_0
*27 Carry_gen/FE_RN_113_0
*28 Carry_gen/G_block_cycle_3_3/FE_RN_112_0
*29 Sum_gen/sum_gen_1/ADDER1/FE_RN_110_0
*30 Sum_gen/sum_gen_1/ADDER1/FE_RN_109_0
*31 Sum_gen/sum_gen_1/ADDER1/FE_RN_107_0
*32 Sum_gen/sum_gen_1/ADDER1/FE_RN_106_0
*33 Sum_gen/sum_gen_1/ADDER1/FE_RN_105_0
*34 Sum_gen/sum_gen_1/ADDER1/FE_RN_104_0
*35 Sum_gen/sum_gen_4/FE_OCPN22_in_1_13
*36 Sum_gen/sum_gen_5/FE_OCPN21_in_2_17
*37 Sum_gen/sum_gen_4/FE_OCPN20_in_2_15
*38 Sum_gen/sum_gen_1/ADDER0/FE_RN_102_0
*39 Sum_gen/sum_gen_1/ADDER0/FE_RN_101_0
*40 Sum_gen/sum_gen_1/ADDER0/FE_RN_99_0
*41 Sum_gen/sum_gen_1/ADDER0/FE_RN_98_0
*42 Sum_gen/sum_gen_1/ADDER0/FE_RN_97_0
*43 Sum_gen/sum_gen_1/ADDER0/FE_RN_96_0
*44 Sum_gen/sum_gen_3/FE_OCPN19_in_1_9
*45 Sum_gen/sum_gen_5/FE_OCPN18_in_1_18
*46 Sum_gen/sum_gen_5/FE_OCPN17_in_2_19
*47 Sum_gen/sum_gen_6/FE_OCPN16_in_2_21
*48 Sum_gen/sum_gen_4/FE_OCPN15_in_1_15
*49 Sum_gen/sum_gen_6/FE_OCPN14_in_1_22
*50 Sum_gen/sum_gen_2/FE_OCPN13_in_1_6
*51 Sum_gen/sum_gen_5/FE_OCPN11_in_1_19
*52 Sum_gen/sum_gen_6/FE_OCPN10_in_1_21
*53 Sum_gen/sum_gen_2/MUX/FE_OCPN9_Carry_from_carry_gen_1
*54 Sum_gen/sum_gen_2/FE_OCPN8_in_2_7
*55 Carry_gen/FE_RN_95_0
*56 Carry_gen/FE_RN_93_0
*57 Carry_gen/FE_RN_92_0
*58 Carry_gen/FE_RN_91_0
*59 Carry_gen/FE_RN_90_0
*60 Carry_gen/FE_RN_89_0
*61 Sum_gen/sum_gen_5/ADDER1/FE_RN_88_0
*62 Sum_gen/sum_gen_5/ADDER1/FE_RN_87_0
*63 Sum_gen/sum_gen_5/ADDER1/FE_RN_86_0
*64 Sum_gen/sum_gen_3/ADDER1/FE_RN_85_0
*65 Sum_gen/sum_gen_3/ADDER1/FE_RN_84_0
*66 Sum_gen/sum_gen_3/ADDER1/FE_RN_82_0
*67 Sum_gen/sum_gen_3/ADDER1/FE_RN_81_0
*68 Sum_gen/sum_gen_3/ADDER1/FE_RN_80_0
*69 Sum_gen/sum_gen_3/ADDER1/FE_RN_79_0
*70 Sum_gen/sum_gen_6/FE_OCPN6_in_2_23
*71 Sum_gen/sum_gen_5/ADDER0/FE_RN_78_0
*72 Sum_gen/sum_gen_5/ADDER0/FE_RN_77_0
*73 Sum_gen/sum_gen_5/ADDER0/FE_RN_76_0
*74 Sum_gen/sum_gen_5/ADDER0/FE_RN_75_0
*75 Carry_gen/FE_RN_74_0
*76 Carry_gen/FE_RN_73_0
*77 Carry_gen/FE_OCPN5_n1
*78 Sum_gen/sum_gen_4/ADDER1/FE_RN_72_0
*79 Sum_gen/sum_gen_4/ADDER1/FE_RN_71_0
*80 Sum_gen/sum_gen_4/ADDER1/FE_RN_70_0
*81 Sum_gen/sum_gen_3/ADDER0/FE_RN_68_0
*82 Sum_gen/sum_gen_3/ADDER0/FE_RN_67_0
*83 Sum_gen/sum_gen_3/ADDER0/FE_RN_64_0
*84 Sum_gen/sum_gen_3/ADDER0/FE_RN_63_0
*85 Sum_gen/sum_gen_3/ADDER0/FE_RN_62_0
*86 Sum_gen/sum_gen_3/ADDER0/FE_RN_61_0
*87 Sum_gen/sum_gen_3/ADDER0/FE_RN_60_0
*88 Sum_gen/sum_gen_3/ADDER0/FE_RN_59_0
*89 Sum_gen/sum_gen_3/ADDER0/FE_RN_58_0
*90 Carry_gen/FE_RN_57_0
*91 Carry_gen/FE_RN_56_0
*92 Sum_gen/sum_gen_6/FE_OCPN4_in_1_23
*93 Sum_gen/sum_gen_4/ADDER0/FE_RN_55_0
*94 Sum_gen/sum_gen_4/ADDER0/FE_RN_53_0
*95 Carry_gen/FE_RN_52_0
*96 Carry_gen/FE_RN_51_0
*97 Sum_gen/sum_gen_2/ADDER1/FE_RN_50_0
*98 Sum_gen/sum_gen_2/ADDER1/FE_RN_49_0
*99 Sum_gen/sum_gen_2/ADDER1/FE_RN_48_0
*100 Sum_gen/sum_gen_7/ADDER0/FE_RN_47_0
*101 Sum_gen/sum_gen_7/ADDER0/FE_RN_46_0
*102 Sum_gen/sum_gen_7/ADDER0/FE_RN_42_0
*103 Sum_gen/sum_gen_7/ADDER0/FE_RN_41_0
*104 Sum_gen/sum_gen_7/ADDER0/FE_RN_40_0
*105 Sum_gen/sum_gen_7/ADDER0/FE_RN_39_0
*106 Sum_gen/sum_gen_7/ADDER0/FE_RN_38_0
*107 Sum_gen/sum_gen_7/ADDER0/FE_RN_37_0
*108 Sum_gen/sum_gen_8/ADDER1/FE_RN_35_0
*109 Sum_gen/sum_gen_8/ADDER1/FE_RN_34_0
*110 Sum_gen/sum_gen_8/ADDER1/FE_RN_32_0
*111 Sum_gen/sum_gen_8/ADDER1/FE_RN_31_0
*112 Sum_gen/sum_gen_8/ADDER1/FE_RN_30_0
*113 Sum_gen/sum_gen_8/ADDER1/FE_RN_29_0
*114 Carry_gen/FE_RN_28_0
*115 Carry_gen/FE_RN_27_0
*116 Sum_gen/sum_gen_2/ADDER0/FE_RN_26_0
*117 Sum_gen/sum_gen_2/ADDER0/FE_RN_24_0
*118 Sum_gen/sum_gen_7/ADDER1/FE_RN_23_0
*119 Sum_gen/sum_gen_7/ADDER1/FE_RN_22_0
*120 Sum_gen/sum_gen_7/ADDER1/FE_RN_20_0
*121 Sum_gen/sum_gen_7/ADDER1/FE_RN_19_0
*122 Sum_gen/sum_gen_7/ADDER1/FE_RN_18_0
*123 Sum_gen/sum_gen_7/ADDER1/FE_RN_17_0
*124 Sum_gen/sum_gen_8/ADDER0/FE_RN_16_0
*125 Sum_gen/sum_gen_8/ADDER0/FE_RN_15_0
*126 Sum_gen/sum_gen_8/ADDER0/FE_RN_13_0
*127 Sum_gen/sum_gen_8/ADDER0/FE_RN_12_0
*128 Sum_gen/sum_gen_8/ADDER0/FE_RN_11_0
*129 Sum_gen/sum_gen_8/ADDER0/FE_RN_10_0
*130 Sum_gen/sum_gen_6/ADDER0/FE_RN_9_0
*131 Sum_gen/sum_gen_6/ADDER0/FE_RN_7_0
*132 Sum_gen/sum_gen_2/FE_OCPN3_in_1_7
*133 Sum_gen/sum_gen_7/MUX/FE_OCPN2_n1
*134 Sum_gen/sum_gen_6/ADDER1/FE_RN_6_0
*135 Sum_gen/sum_gen_6/ADDER1/FE_RN_5_0
*136 Sum_gen/sum_gen_6/ADDER1/FE_RN_4_0
*137 Carry_gen/FE_RN_3_0
*138 Carry_gen/FE_RN_2_0
*139 Carry_gen/FE_RN_1_0
*140 Carry_gen/FE_RN_0_0
*141 Sum_gen/sum_gen_3/MUX/FE_OCPN1_Carry_from_carry_gen_2
*142 Carry_gen/FE_OCPN0_Carry_from_carry_gen_4
*143 Sum_gen/sum_gen_6/MUX/FE_DBTN0_Carry_from_carry_gen_5
*144 INPUT_1[31]
*145 INPUT_1[30]
*146 INPUT_1[29]
*147 INPUT_1[28]
*148 INPUT_1[27]
*149 INPUT_1[26]
*150 INPUT_1[25]
*151 INPUT_1[24]
*152 INPUT_1[23]
*153 INPUT_1[22]
*154 INPUT_1[21]
*155 INPUT_1[20]
*156 INPUT_1[19]
*157 INPUT_1[18]
*158 INPUT_1[17]
*159 INPUT_1[16]
*160 INPUT_1[15]
*161 INPUT_1[14]
*162 INPUT_1[13]
*163 INPUT_1[12]
*164 INPUT_1[11]
*165 INPUT_1[10]
*166 INPUT_1[9]
*167 INPUT_1[8]
*168 INPUT_1[7]
*169 INPUT_1[6]
*170 INPUT_1[5]
*171 INPUT_1[4]
*172 INPUT_1[3]
*173 INPUT_1[2]
*174 INPUT_1[1]
*175 INPUT_1[0]
*176 INPUT_2[31]
*177 INPUT_2[30]
*178 INPUT_2[29]
*179 INPUT_2[28]
*180 INPUT_2[27]
*181 INPUT_2[26]
*182 INPUT_2[25]
*183 INPUT_2[24]
*184 INPUT_2[23]
*185 INPUT_2[22]
*186 INPUT_2[21]
*187 INPUT_2[20]
*188 INPUT_2[19]
*189 INPUT_2[18]
*190 INPUT_2[17]
*191 INPUT_2[16]
*192 INPUT_2[15]
*193 INPUT_2[14]
*194 INPUT_2[13]
*195 INPUT_2[12]
*196 INPUT_2[11]
*197 INPUT_2[10]
*198 INPUT_2[9]
*199 INPUT_2[8]
*200 INPUT_2[7]
*201 INPUT_2[6]
*202 INPUT_2[5]
*203 INPUT_2[4]
*204 INPUT_2[3]
*205 INPUT_2[2]
*206 INPUT_2[1]
*207 INPUT_2[0]
*208 SUM[32]
*209 SUM[31]
*210 SUM[30]
*211 SUM[29]
*212 SUM[28]
*213 SUM[27]
*214 SUM[26]
*215 SUM[25]
*216 SUM[24]
*217 SUM[23]
*218 SUM[22]
*219 SUM[21]
*220 SUM[20]
*221 SUM[19]
*222 SUM[18]
*223 SUM[17]
*224 SUM[16]
*225 SUM[15]
*226 SUM[14]
*227 SUM[13]
*228 SUM[12]
*229 SUM[11]
*230 SUM[10]
*231 SUM[9]
*232 SUM[8]
*233 SUM[7]
*234 SUM[6]
*235 SUM[5]
*236 SUM[4]
*237 SUM[3]
*238 SUM[2]
*239 SUM[1]
*240 SUM[0]
*241 C_in
*242 reset
*243 Clk
*244 C_out
*245 in_1[31]
*246 in_1[30]
*247 in_1[29]
*248 in_1[28]
*249 in_1[27]
*250 in_1[26]
*251 in_1[25]
*252 in_1[24]
*253 in_1[23]
*254 in_1[22]
*255 in_1[21]
*256 in_1[20]
*257 in_1[19]
*258 in_1[18]
*259 in_1[17]
*260 in_1[16]
*261 in_1[15]
*262 in_1[14]
*263 in_1[13]
*264 in_1[12]
*265 in_1[11]
*266 in_1[10]
*267 in_1[9]
*268 in_1[8]
*269 in_1[7]
*270 in_1[6]
*271 in_1[5]
*272 in_1[4]
*273 in_1[3]
*274 in_1[2]
*275 in_1[1]
*276 in_1[0]
*277 in_2[31]
*278 in_2[30]
*279 in_2[29]
*280 in_2[28]
*281 in_2[27]
*282 in_2[26]
*283 in_2[25]
*284 in_2[24]
*285 in_2[23]
*286 in_2[22]
*287 in_2[21]
*288 in_2[20]
*289 in_2[19]
*290 in_2[18]
*291 in_2[17]
*292 in_2[16]
*293 in_2[15]
*294 in_2[14]
*295 in_2[13]
*296 in_2[12]
*297 in_2[11]
*298 in_2[10]
*299 in_2[9]
*300 in_2[8]
*301 in_2[7]
*302 in_2[6]
*303 in_2[5]
*304 in_2[4]
*305 in_2[3]
*306 in_2[2]
*307 in_2[1]
*308 in_2[0]
*309 Carry_from_carry_gen[7]
*310 Carry_from_carry_gen[6]
*311 Carry_from_carry_gen[5]
*312 Carry_from_carry_gen[4]
*313 Carry_from_carry_gen[3]
*314 Carry_from_carry_gen[2]
*315 Carry_from_carry_gen[1]
*316 p4_sum_and_cout[32]
*317 p4_sum_and_cout[31]
*318 p4_sum_and_cout[30]
*319 p4_sum_and_cout[29]
*320 p4_sum_and_cout[28]
*321 p4_sum_and_cout[27]
*322 p4_sum_and_cout[26]
*323 p4_sum_and_cout[25]
*324 p4_sum_and_cout[24]
*325 p4_sum_and_cout[23]
*326 p4_sum_and_cout[22]
*327 p4_sum_and_cout[21]
*328 p4_sum_and_cout[20]
*329 p4_sum_and_cout[19]
*330 p4_sum_and_cout[18]
*331 p4_sum_and_cout[17]
*332 p4_sum_and_cout[16]
*333 p4_sum_and_cout[15]
*334 p4_sum_and_cout[14]
*335 p4_sum_and_cout[13]
*336 p4_sum_and_cout[12]
*337 p4_sum_and_cout[11]
*338 p4_sum_and_cout[10]
*339 p4_sum_and_cout[9]
*340 p4_sum_and_cout[8]
*341 p4_sum_and_cout[7]
*342 p4_sum_and_cout[6]
*343 p4_sum_and_cout[5]
*344 p4_sum_and_cout[4]
*345 p4_sum_and_cout[3]
*346 p4_sum_and_cout[2]
*347 p4_sum_and_cout[1]
*348 reg_1/FD_i_0/N3
*349 reg_1/FD_i_0/n1
*350 reg_1/FD_i_1/N3
*351 reg_1/FD_i_1/n1
*352 reg_1/FD_i_2/N3
*353 reg_1/FD_i_2/n1
*354 reg_1/FD_i_3/N3
*355 reg_1/FD_i_3/n1
*356 reg_1/FD_i_4/N3
*357 reg_1/FD_i_4/n1
*358 reg_1/FD_i_5/N3
*359 reg_1/FD_i_5/n1
*360 reg_1/FD_i_6/N3
*361 reg_1/FD_i_6/n1
*362 reg_1/FD_i_7/N3
*363 reg_1/FD_i_7/n1
*364 reg_1/FD_i_8/N3
*365 reg_1/FD_i_8/n1
*366 reg_1/FD_i_9/N3
*367 reg_1/FD_i_9/n1
*368 reg_1/FD_i_10/N3
*369 reg_1/FD_i_10/n1
*370 reg_1/FD_i_11/N3
*371 reg_1/FD_i_11/n1
*372 reg_1/FD_i_12/N3
*373 reg_1/FD_i_12/n1
*374 reg_1/FD_i_13/N3
*375 reg_1/FD_i_13/n1
*376 reg_1/FD_i_14/N3
*377 reg_1/FD_i_14/n1
*378 reg_1/FD_i_15/N3
*379 reg_1/FD_i_15/n1
*380 reg_1/FD_i_16/N3
*381 reg_1/FD_i_16/n1
*382 reg_1/FD_i_17/N3
*383 reg_1/FD_i_17/n1
*384 reg_1/FD_i_18/N3
*385 reg_1/FD_i_18/n1
*386 reg_1/FD_i_19/N3
*387 reg_1/FD_i_19/n1
*388 reg_1/FD_i_20/N3
*389 reg_1/FD_i_20/n1
*390 reg_1/FD_i_21/N3
*391 reg_1/FD_i_21/n1
*392 reg_1/FD_i_22/N3
*393 reg_1/FD_i_22/n1
*394 reg_1/FD_i_23/N3
*395 reg_1/FD_i_23/n1
*396 reg_1/FD_i_24/N3
*397 reg_1/FD_i_24/n1
*398 reg_1/FD_i_25/N3
*399 reg_1/FD_i_25/n1
*400 reg_1/FD_i_26/N3
*401 reg_1/FD_i_26/n1
*402 reg_1/FD_i_27/N3
*403 reg_1/FD_i_27/n1
*404 reg_1/FD_i_28/N3
*405 reg_1/FD_i_28/n1
*406 reg_1/FD_i_29/N3
*407 reg_1/FD_i_29/n1
*408 reg_1/FD_i_30/N3
*409 reg_1/FD_i_30/n1
*410 reg_1/FD_i_31/N3
*411 reg_1/FD_i_31/n1
*412 reg_2/FD_i_0/N3
*413 reg_2/FD_i_0/n1
*414 reg_2/FD_i_1/N3
*415 reg_2/FD_i_1/n1
*416 reg_2/FD_i_2/N3
*417 reg_2/FD_i_2/n1
*418 reg_2/FD_i_3/N3
*419 reg_2/FD_i_3/n1
*420 reg_2/FD_i_4/N3
*421 reg_2/FD_i_4/n1
*422 reg_2/FD_i_5/N3
*423 reg_2/FD_i_5/n1
*424 reg_2/FD_i_6/N3
*425 reg_2/FD_i_6/n1
*426 reg_2/FD_i_7/N3
*427 reg_2/FD_i_7/n1
*428 reg_2/FD_i_8/N3
*429 reg_2/FD_i_8/n1
*430 reg_2/FD_i_9/N3
*431 reg_2/FD_i_9/n1
*432 reg_2/FD_i_10/N3
*433 reg_2/FD_i_10/n1
*434 reg_2/FD_i_11/N3
*435 reg_2/FD_i_11/n1
*436 reg_2/FD_i_12/N3
*437 reg_2/FD_i_12/n1
*438 reg_2/FD_i_13/N3
*439 reg_2/FD_i_13/n1
*440 reg_2/FD_i_14/N3
*441 reg_2/FD_i_14/n1
*442 reg_2/FD_i_15/N3
*443 reg_2/FD_i_15/n1
*444 reg_2/FD_i_16/N3
*445 reg_2/FD_i_16/n1
*446 reg_2/FD_i_17/N3
*447 reg_2/FD_i_17/n1
*448 reg_2/FD_i_18/N3
*449 reg_2/FD_i_18/n1
*450 reg_2/FD_i_19/N3
*451 reg_2/FD_i_19/n1
*452 reg_2/FD_i_20/N3
*453 reg_2/FD_i_20/n1
*454 reg_2/FD_i_21/N3
*455 reg_2/FD_i_21/n1
*456 reg_2/FD_i_22/N3
*457 reg_2/FD_i_22/n1
*458 reg_2/FD_i_23/N3
*459 reg_2/FD_i_23/n1
*460 reg_2/FD_i_24/N3
*461 reg_2/FD_i_24/n1
*462 reg_2/FD_i_25/N3
*463 reg_2/FD_i_25/n1
*464 reg_2/FD_i_26/N3
*465 reg_2/FD_i_26/n1
*466 reg_2/FD_i_27/N3
*467 reg_2/FD_i_27/n1
*468 reg_2/FD_i_28/N3
*469 reg_2/FD_i_28/n1
*470 reg_2/FD_i_29/N3
*471 reg_2/FD_i_29/n1
*472 reg_2/FD_i_30/N3
*473 reg_2/FD_i_30/n1
*474 reg_2/FD_i_31/N3
*475 reg_2/FD_i_31/n1
*476 reg_out/FD_i_0/N3
*477 reg_out/FD_i_0/n1
*478 reg_out/FD_i_1/N3
*479 reg_out/FD_i_2/N3
*480 reg_out/FD_i_3/N3
*481 reg_out/FD_i_4/N3
*482 reg_out/FD_i_5/N3
*483 reg_out/FD_i_6/N3
*484 reg_out/FD_i_7/N3
*485 reg_out/FD_i_8/N3
*486 reg_out/FD_i_9/N3
*487 reg_out/FD_i_10/N3
*488 reg_out/FD_i_11/N3
*489 reg_out/FD_i_12/N3
*490 reg_out/FD_i_13/N3
*491 reg_out/FD_i_14/N3
*492 reg_out/FD_i_15/N3
*493 reg_out/FD_i_16/N3
*494 reg_out/FD_i_17/N3
*495 reg_out/FD_i_18/N3
*496 reg_out/FD_i_19/N3
*497 reg_out/FD_i_20/N3
*498 reg_out/FD_i_21/N3
*499 reg_out/FD_i_21/n1
*500 reg_out/FD_i_22/N3
*501 reg_out/FD_i_22/n1
*502 reg_out/FD_i_23/N3
*503 reg_out/FD_i_23/n1
*504 reg_out/FD_i_24/N3
*505 reg_out/FD_i_24/n1
*506 reg_out/FD_i_25/N3
*507 reg_out/FD_i_25/n1
*508 reg_out/FD_i_26/N3
*509 reg_out/FD_i_26/n1
*510 reg_out/FD_i_27/N3
*511 reg_out/FD_i_27/n1
*512 reg_out/FD_i_28/N3
*513 reg_out/FD_i_28/n1
*514 reg_out/FD_i_29/N3
*515 reg_out/FD_i_29/n1
*516 reg_out/FD_i_30/N3
*517 reg_out/FD_i_30/n1
*518 reg_out/FD_i_31/N3
*519 reg_out/FD_i_31/n1
*520 reg_out/FD_i_32/N3
*521 reg_out/FD_i_32/n1
*522 Carry_gen/G_matrix\[15\]\[15\]
*523 Carry_gen/G_matrix\[15\]\[14\]
*524 Carry_gen/G_matrix\[15\]\[12\]
*525 Carry_gen/G_matrix\[15\]\[8\]
*526 Carry_gen/G_matrix\[14\]\[14\]
*527 Carry_gen/G_matrix\[13\]\[13\]
*528 Carry_gen/G_matrix\[13\]\[12\]
*529 Carry_gen/G_matrix\[12\]\[12\]
*530 Carry_gen/G_matrix\[11\]\[11\]
*531 Carry_gen/G_matrix\[11\]\[10\]
*532 Carry_gen/G_matrix\[11\]\[8\]
*533 Carry_gen/G_matrix\[10\]\[10\]
*534 Carry_gen/G_matrix\[9\]\[9\]
*535 Carry_gen/G_matrix\[9\]\[8\]
*536 Carry_gen/G_matrix\[8\]\[8\]
*537 Carry_gen/G_matrix\[7\]\[7\]
*538 Carry_gen/G_matrix\[7\]\[6\]
*539 Carry_gen/G_matrix\[7\]\[4\]
*540 Carry_gen/G_matrix\[6\]\[6\]
*541 Carry_gen/G_matrix\[5\]\[5\]
*542 Carry_gen/G_matrix\[5\]\[4\]
*543 Carry_gen/G_matrix\[4\]\[4\]
*544 Carry_gen/G_matrix\[3\]\[3\]
*545 Carry_gen/G_matrix\[3\]\[2\]
*546 Carry_gen/G_matrix\[2\]\[2\]
*547 Carry_gen/G_matrix\[2\]\[0\]
*548 Carry_gen/G_matrix\[1\]\[1\]
*549 Carry_gen/G_matrix\[1\]\[0\]
*550 Carry_gen/G_matrix\[0\]\[0\]
*551 Carry_gen/G_matrix\[31\]\[31\]
*552 Carry_gen/G_matrix\[31\]\[30\]
*553 Carry_gen/G_matrix\[31\]\[28\]
*554 Carry_gen/G_matrix\[31\]\[24\]
*555 Carry_gen/G_matrix\[31\]\[16\]
*556 Carry_gen/G_matrix\[30\]\[30\]
*557 Carry_gen/G_matrix\[29\]\[29\]
*558 Carry_gen/G_matrix\[29\]\[28\]
*559 Carry_gen/G_matrix\[28\]\[28\]
*560 Carry_gen/G_matrix\[27\]\[27\]
*561 Carry_gen/G_matrix\[27\]\[26\]
*562 Carry_gen/G_matrix\[27\]\[24\]
*563 Carry_gen/G_matrix\[27\]\[16\]
*564 Carry_gen/G_matrix\[26\]\[26\]
*565 Carry_gen/G_matrix\[25\]\[25\]
*566 Carry_gen/G_matrix\[25\]\[24\]
*567 Carry_gen/G_matrix\[24\]\[24\]
*568 Carry_gen/G_matrix\[23\]\[23\]
*569 Carry_gen/G_matrix\[23\]\[22\]
*570 Carry_gen/G_matrix\[23\]\[20\]
*571 Carry_gen/G_matrix\[23\]\[16\]
*572 Carry_gen/G_matrix\[22\]\[22\]
*573 Carry_gen/G_matrix\[21\]\[21\]
*574 Carry_gen/G_matrix\[21\]\[20\]
*575 Carry_gen/G_matrix\[20\]\[20\]
*576 Carry_gen/G_matrix\[19\]\[19\]
*577 Carry_gen/G_matrix\[19\]\[18\]
*578 Carry_gen/G_matrix\[19\]\[16\]
*579 Carry_gen/G_matrix\[18\]\[18\]
*580 Carry_gen/G_matrix\[17\]\[17\]
*581 Carry_gen/G_matrix\[17\]\[16\]
*582 Carry_gen/G_matrix\[16\]\[16\]
*583 Carry_gen/PG_matrix\[15\]\[15\]
*584 Carry_gen/PG_matrix\[15\]\[14\]
*585 Carry_gen/PG_matrix\[15\]\[12\]
*586 Carry_gen/PG_matrix\[15\]\[8\]
*587 Carry_gen/PG_matrix\[14\]\[14\]
*588 Carry_gen/PG_matrix\[13\]\[13\]
*589 Carry_gen/PG_matrix\[13\]\[12\]
*590 Carry_gen/PG_matrix\[12\]\[12\]
*591 Carry_gen/PG_matrix\[11\]\[11\]
*592 Carry_gen/PG_matrix\[11\]\[10\]
*593 Carry_gen/PG_matrix\[11\]\[8\]
*594 Carry_gen/PG_matrix\[10\]\[10\]
*595 Carry_gen/PG_matrix\[9\]\[9\]
*596 Carry_gen/PG_matrix\[9\]\[8\]
*597 Carry_gen/PG_matrix\[8\]\[8\]
*598 Carry_gen/PG_matrix\[7\]\[7\]
*599 Carry_gen/PG_matrix\[7\]\[6\]
*600 Carry_gen/PG_matrix\[7\]\[4\]
*601 Carry_gen/PG_matrix\[6\]\[6\]
*602 Carry_gen/PG_matrix\[5\]\[5\]
*603 Carry_gen/PG_matrix\[5\]\[4\]
*604 Carry_gen/PG_matrix\[4\]\[4\]
*605 Carry_gen/PG_matrix\[3\]\[3\]
*606 Carry_gen/PG_matrix\[3\]\[2\]
*607 Carry_gen/PG_matrix\[2\]\[2\]
*608 Carry_gen/PG_matrix\[1\]\[1\]
*609 Carry_gen/PG_matrix\[0\]\[0\]
*610 Carry_gen/PG_matrix\[31\]\[31\]
*611 Carry_gen/PG_matrix\[31\]\[30\]
*612 Carry_gen/PG_matrix\[31\]\[28\]
*613 Carry_gen/PG_matrix\[31\]\[24\]
*614 Carry_gen/PG_matrix\[31\]\[16\]
*615 Carry_gen/PG_matrix\[30\]\[30\]
*616 Carry_gen/PG_matrix\[29\]\[29\]
*617 Carry_gen/PG_matrix\[29\]\[28\]
*618 Carry_gen/PG_matrix\[28\]\[28\]
*619 Carry_gen/PG_matrix\[27\]\[27\]
*620 Carry_gen/PG_matrix\[27\]\[26\]
*621 Carry_gen/PG_matrix\[27\]\[24\]
*622 Carry_gen/PG_matrix\[27\]\[16\]
*623 Carry_gen/PG_matrix\[26\]\[26\]
*624 Carry_gen/PG_matrix\[25\]\[25\]
*625 Carry_gen/PG_matrix\[25\]\[24\]
*626 Carry_gen/PG_matrix\[24\]\[24\]
*627 Carry_gen/PG_matrix\[23\]\[23\]
*628 Carry_gen/PG_matrix\[23\]\[22\]
*629 Carry_gen/PG_matrix\[23\]\[20\]
*630 Carry_gen/PG_matrix\[23\]\[16\]
*631 Carry_gen/PG_matrix\[22\]\[22\]
*632 Carry_gen/PG_matrix\[21\]\[21\]
*633 Carry_gen/PG_matrix\[21\]\[20\]
*634 Carry_gen/PG_matrix\[20\]\[20\]
*635 Carry_gen/PG_matrix\[19\]\[19\]
*636 Carry_gen/PG_matrix\[19\]\[18\]
*637 Carry_gen/PG_matrix\[19\]\[16\]
*638 Carry_gen/PG_matrix\[18\]\[18\]
*639 Carry_gen/PG_matrix\[17\]\[17\]
*640 Carry_gen/PG_matrix\[17\]\[16\]
*641 Carry_gen/PG_matrix\[16\]\[16\]
*642 Carry_gen/net2479
*643 Carry_gen/net2480
*644 Carry_gen/G_block_2_0/n2
*645 Carry_gen/G_block_2_0/n3
*646 Carry_gen/G_block_3_0/n2
*647 Carry_gen/G_block_cycle_2_1/n3
*648 Carry_gen/G_block_cycle_2_2/n1
*649 Carry_gen/G_block_cycle_3_1/n1
*650 Carry_gen/G_block_cycle_3_3/n1
*651 Carry_gen/G_block_cycle_3_3/n2
*652 Carry_gen/G_block_cycle_3_4/n3
*653 Carry_gen/pre_generation_0_2/n3
*654 Carry_gen/pre_generation_0_3/n1
*655 Carry_gen/pre_generation_0_6/n3
*656 Carry_gen/pre_generation_0_7/n1
*657 Carry_gen/pre_generation_0_7/n2
*658 Carry_gen/pre_generation_0_7/n3
*659 Carry_gen/pre_generation_0_8/n3
*660 Carry_gen/pre_generation_0_9/n3
*661 Carry_gen/pre_generation_0_10/n3
*662 Carry_gen/pre_generation_0_11/n3
*663 Carry_gen/pre_generation_0_12/n3
*664 Carry_gen/pre_generation_0_13/n3
*665 Carry_gen/pre_generation_0_14/n3
*666 Carry_gen/pre_generation_0_15/n3
*667 Carry_gen/pre_generation_1_0/n1
*668 Carry_gen/pre_generation_1_1/n2
*669 Carry_gen/pre_generation_1_2/n3
*670 Carry_gen/pre_generation_1_3/n3
*671 Carry_gen/pre_generation_1_4/n3
*672 Carry_gen/pre_generation_1_5/n3
*673 Carry_gen/pre_generation_1_6/n3
*674 Carry_gen/gen_2_0_0/n3
*675 Carry_gen/gen_2_0_1/n3
*676 Carry_gen/gen_2_0_2/n3
*677 Carry_gen/PG_block_cycle_1_1_1/n3
*678 Carry_gen/PG_block_cycle_1_1_2/n3
*679 Sum_gen/sum_gen_1/SUM_0[3]
*680 Sum_gen/sum_gen_1/SUM_0[2]
*681 Sum_gen/sum_gen_1/SUM_0[1]
*682 Sum_gen/sum_gen_1/SUM_0[0]
*683 Sum_gen/sum_gen_1/SUM_1[3]
*684 Sum_gen/sum_gen_1/SUM_1[2]
*685 Sum_gen/sum_gen_1/SUM_1[1]
*686 Sum_gen/sum_gen_1/SUM_1[0]
*687 Sum_gen/sum_gen_1/ADDER0/Co
*688 Sum_gen/sum_gen_1/ADDER0/r56\/carry\[3\]
*689 Sum_gen/sum_gen_1/ADDER0/r56\/carry\[2\]
*690 Sum_gen/sum_gen_1/ADDER0/r56\/carry\[1\]
*691 Sum_gen/sum_gen_1/ADDER1/Co
*692 Sum_gen/sum_gen_1/ADDER1/r56\/carry\[3\]
*693 Sum_gen/sum_gen_1/ADDER1/r56\/carry\[2\]
*694 Sum_gen/sum_gen_1/ADDER1/r56\/carry\[1\]
*695 Sum_gen/sum_gen_1/MUX/n5
*696 Sum_gen/sum_gen_2/SUM_0[3]
*697 Sum_gen/sum_gen_2/SUM_0[2]
*698 Sum_gen/sum_gen_2/SUM_0[1]
*699 Sum_gen/sum_gen_2/SUM_0[0]
*700 Sum_gen/sum_gen_2/SUM_1[3]
*701 Sum_gen/sum_gen_2/SUM_1[2]
*702 Sum_gen/sum_gen_2/SUM_1[1]
*703 Sum_gen/sum_gen_2/SUM_1[0]
*704 Sum_gen/sum_gen_2/ADDER0/Co
*705 Sum_gen/sum_gen_2/ADDER0/r56\/carry\[3\]
*706 Sum_gen/sum_gen_2/ADDER0/r56\/carry\[2\]
*707 Sum_gen/sum_gen_2/ADDER0/r56\/carry\[1\]
*708 Sum_gen/sum_gen_2/ADDER1/Co
*709 Sum_gen/sum_gen_2/ADDER1/r56\/carry\[3\]
*710 Sum_gen/sum_gen_2/ADDER1/r56\/carry\[2\]
*711 Sum_gen/sum_gen_2/ADDER1/r56\/carry\[1\]
*712 Sum_gen/sum_gen_2/MUX/n5
*713 Sum_gen/sum_gen_3/SUM_0[3]
*714 Sum_gen/sum_gen_3/SUM_0[2]
*715 Sum_gen/sum_gen_3/SUM_0[1]
*716 Sum_gen/sum_gen_3/SUM_0[0]
*717 Sum_gen/sum_gen_3/SUM_1[3]
*718 Sum_gen/sum_gen_3/SUM_1[2]
*719 Sum_gen/sum_gen_3/SUM_1[1]
*720 Sum_gen/sum_gen_3/SUM_1[0]
*721 Sum_gen/sum_gen_3/ADDER0/Co
*722 Sum_gen/sum_gen_3/ADDER0/r56\/carry\[3\]
*723 Sum_gen/sum_gen_3/ADDER0/r56\/carry\[2\]
*724 Sum_gen/sum_gen_3/ADDER0/r56\/carry\[1\]
*725 Sum_gen/sum_gen_3/ADDER1/Co
*726 Sum_gen/sum_gen_3/ADDER1/r56\/carry\[3\]
*727 Sum_gen/sum_gen_3/ADDER1/r56\/carry\[2\]
*728 Sum_gen/sum_gen_3/ADDER1/r56\/carry\[1\]
*729 Sum_gen/sum_gen_3/MUX/n10
*730 Sum_gen/sum_gen_4/SUM_0[3]
*731 Sum_gen/sum_gen_4/SUM_0[2]
*732 Sum_gen/sum_gen_4/SUM_0[1]
*733 Sum_gen/sum_gen_4/SUM_0[0]
*734 Sum_gen/sum_gen_4/SUM_1[3]
*735 Sum_gen/sum_gen_4/SUM_1[2]
*736 Sum_gen/sum_gen_4/SUM_1[1]
*737 Sum_gen/sum_gen_4/SUM_1[0]
*738 Sum_gen/sum_gen_4/ADDER0/Co
*739 Sum_gen/sum_gen_4/ADDER0/r56\/carry\[3\]
*740 Sum_gen/sum_gen_4/ADDER0/r56\/carry\[2\]
*741 Sum_gen/sum_gen_4/ADDER0/r56\/carry\[1\]
*742 Sum_gen/sum_gen_4/ADDER1/Co
*743 Sum_gen/sum_gen_4/ADDER1/r56\/carry\[3\]
*744 Sum_gen/sum_gen_4/ADDER1/r56\/carry\[2\]
*745 Sum_gen/sum_gen_4/ADDER1/r56\/carry\[1\]
*746 Sum_gen/sum_gen_4/MUX/n11
*747 Sum_gen/sum_gen_5/SUM_0[3]
*748 Sum_gen/sum_gen_5/SUM_0[2]
*749 Sum_gen/sum_gen_5/SUM_0[1]
*750 Sum_gen/sum_gen_5/SUM_0[0]
*751 Sum_gen/sum_gen_5/SUM_1[3]
*752 Sum_gen/sum_gen_5/SUM_1[2]
*753 Sum_gen/sum_gen_5/SUM_1[1]
*754 Sum_gen/sum_gen_5/SUM_1[0]
*755 Sum_gen/sum_gen_5/ADDER0/Co
*756 Sum_gen/sum_gen_5/ADDER0/r56\/carry\[3\]
*757 Sum_gen/sum_gen_5/ADDER0/r56\/carry\[2\]
*758 Sum_gen/sum_gen_5/ADDER0/r56\/carry\[1\]
*759 Sum_gen/sum_gen_5/ADDER1/Co
*760 Sum_gen/sum_gen_5/ADDER1/r56\/carry\[3\]
*761 Sum_gen/sum_gen_5/ADDER1/r56\/carry\[2\]
*762 Sum_gen/sum_gen_5/ADDER1/r56\/carry\[1\]
*763 Sum_gen/sum_gen_5/MUX/n3
*764 Sum_gen/sum_gen_6/SUM_0[3]
*765 Sum_gen/sum_gen_6/SUM_0[2]
*766 Sum_gen/sum_gen_6/SUM_0[1]
*767 Sum_gen/sum_gen_6/SUM_0[0]
*768 Sum_gen/sum_gen_6/SUM_1[3]
*769 Sum_gen/sum_gen_6/SUM_1[2]
*770 Sum_gen/sum_gen_6/SUM_1[1]
*771 Sum_gen/sum_gen_6/SUM_1[0]
*772 Sum_gen/sum_gen_6/ADDER0/Co
*773 Sum_gen/sum_gen_6/ADDER0/r56\/carry\[3\]
*774 Sum_gen/sum_gen_6/ADDER0/r56\/carry\[2\]
*775 Sum_gen/sum_gen_6/ADDER0/r56\/carry\[1\]
*776 Sum_gen/sum_gen_6/ADDER1/Co
*777 Sum_gen/sum_gen_6/ADDER1/r56\/carry\[3\]
*778 Sum_gen/sum_gen_6/ADDER1/r56\/carry\[2\]
*779 Sum_gen/sum_gen_6/ADDER1/r56\/carry\[1\]
*780 Sum_gen/sum_gen_6/MUX/n2
*781 Sum_gen/sum_gen_6/MUX/n3
*782 Sum_gen/sum_gen_6/MUX/n5
*783 Sum_gen/sum_gen_6/MUX/n6
*784 Sum_gen/sum_gen_6/MUX/n8
*785 Sum_gen/sum_gen_6/MUX/n9
*786 Sum_gen/sum_gen_6/MUX/n13
*787 Sum_gen/sum_gen_6/MUX/n14
*788 Sum_gen/sum_gen_7/SUM_0[3]
*789 Sum_gen/sum_gen_7/SUM_0[2]
*790 Sum_gen/sum_gen_7/SUM_0[1]
*791 Sum_gen/sum_gen_7/SUM_0[0]
*792 Sum_gen/sum_gen_7/SUM_1[3]
*793 Sum_gen/sum_gen_7/SUM_1[2]
*794 Sum_gen/sum_gen_7/SUM_1[1]
*795 Sum_gen/sum_gen_7/SUM_1[0]
*796 Sum_gen/sum_gen_7/ADDER0/Co
*797 Sum_gen/sum_gen_7/ADDER0/r56\/carry\[3\]
*798 Sum_gen/sum_gen_7/ADDER0/r56\/carry\[2\]
*799 Sum_gen/sum_gen_7/ADDER0/r56\/carry\[1\]
*800 Sum_gen/sum_gen_7/ADDER1/Co
*801 Sum_gen/sum_gen_7/ADDER1/r56\/carry\[3\]
*802 Sum_gen/sum_gen_7/ADDER1/r56\/carry\[2\]
*803 Sum_gen/sum_gen_7/ADDER1/r56\/carry\[1\]
*804 Sum_gen/sum_gen_7/MUX/net2526
*805 Sum_gen/sum_gen_7/MUX/net2525
*806 Sum_gen/sum_gen_7/MUX/n2
*807 Sum_gen/sum_gen_7/MUX/n3
*808 Sum_gen/sum_gen_7/MUX/n5
*809 Sum_gen/sum_gen_8/SUM_0[3]
*810 Sum_gen/sum_gen_8/SUM_0[2]
*811 Sum_gen/sum_gen_8/SUM_0[1]
*812 Sum_gen/sum_gen_8/SUM_0[0]
*813 Sum_gen/sum_gen_8/SUM_1[3]
*814 Sum_gen/sum_gen_8/SUM_1[2]
*815 Sum_gen/sum_gen_8/SUM_1[1]
*816 Sum_gen/sum_gen_8/SUM_1[0]
*817 Sum_gen/sum_gen_8/ADDER0/Co
*818 Sum_gen/sum_gen_8/ADDER0/r56\/carry\[3\]
*819 Sum_gen/sum_gen_8/ADDER0/r56\/carry\[2\]
*820 Sum_gen/sum_gen_8/ADDER0/r56\/carry\[1\]
*821 Sum_gen/sum_gen_8/ADDER1/Co
*822 Sum_gen/sum_gen_8/ADDER1/r56\/carry\[3\]
*823 Sum_gen/sum_gen_8/ADDER1/r56\/carry\[2\]
*824 Sum_gen/sum_gen_8/ADDER1/r56\/carry\[1\]
*825 Sum_gen/sum_gen_8/MUX/n1
*826 Sum_gen/sum_gen_8/MUX/n3
*827 FE_OFC26_reset
*828 FE_OFC25_reset
*829 reg_1/FD_i_0/Q_reg
*830 reg_1/FD_i_0/U3
*831 reg_1/FD_i_0/U4
*832 reg_1/FD_i_1/Q_reg
*833 reg_1/FD_i_1/U3
*834 reg_1/FD_i_1/U4
*835 reg_1/FD_i_2/Q_reg
*836 reg_1/FD_i_2/U3
*837 reg_1/FD_i_2/U4
*838 reg_1/FD_i_3/Q_reg
*839 reg_1/FD_i_3/U3
*840 reg_1/FD_i_3/U4
*841 reg_1/FD_i_4/Q_reg
*842 reg_1/FD_i_4/U3
*843 reg_1/FD_i_4/U4
*844 reg_1/FD_i_5/Q_reg
*845 reg_1/FD_i_5/U3
*846 reg_1/FD_i_5/U4
*847 reg_1/FD_i_6/Q_reg
*848 reg_1/FD_i_6/U3
*849 reg_1/FD_i_6/U4
*850 reg_1/FD_i_7/Q_reg
*851 reg_1/FD_i_7/U3
*852 reg_1/FD_i_7/U4
*853 reg_1/FD_i_8/Q_reg
*854 reg_1/FD_i_8/U3
*855 reg_1/FD_i_8/U4
*856 reg_1/FD_i_9/Q_reg
*857 reg_1/FD_i_9/U3
*858 reg_1/FD_i_9/U4
*859 reg_1/FD_i_10/Q_reg
*860 reg_1/FD_i_10/U3
*861 reg_1/FD_i_10/U4
*862 reg_1/FD_i_11/Q_reg
*863 reg_1/FD_i_11/U3
*864 reg_1/FD_i_11/U4
*865 reg_1/FD_i_12/Q_reg
*866 reg_1/FD_i_12/U3
*867 reg_1/FD_i_12/U4
*868 reg_1/FD_i_13/Q_reg
*869 reg_1/FD_i_13/U3
*870 reg_1/FD_i_13/U4
*871 reg_1/FD_i_14/Q_reg
*872 reg_1/FD_i_14/U3
*873 reg_1/FD_i_14/U4
*874 reg_1/FD_i_15/Q_reg
*875 reg_1/FD_i_15/U3
*876 reg_1/FD_i_15/U4
*877 reg_1/FD_i_16/Q_reg
*878 reg_1/FD_i_16/U3
*879 reg_1/FD_i_16/U4
*880 reg_1/FD_i_17/Q_reg
*881 reg_1/FD_i_17/U3
*882 reg_1/FD_i_17/U4
*883 reg_1/FD_i_18/Q_reg
*884 reg_1/FD_i_18/U3
*885 reg_1/FD_i_18/U4
*886 reg_1/FD_i_19/Q_reg
*887 reg_1/FD_i_19/U3
*888 reg_1/FD_i_19/U4
*889 reg_1/FD_i_20/Q_reg
*890 reg_1/FD_i_20/U3
*891 reg_1/FD_i_20/U4
*892 reg_1/FD_i_21/Q_reg
*893 reg_1/FD_i_21/U3
*894 reg_1/FD_i_21/U4
*895 reg_1/FD_i_22/Q_reg
*896 reg_1/FD_i_22/U3
*897 reg_1/FD_i_22/U4
*898 reg_1/FD_i_23/Q_reg
*899 reg_1/FD_i_23/U3
*900 reg_1/FD_i_23/U4
*901 reg_1/FD_i_24/Q_reg
*902 reg_1/FD_i_24/U3
*903 reg_1/FD_i_24/U4
*904 reg_1/FD_i_25/Q_reg
*905 reg_1/FD_i_25/U3
*906 reg_1/FD_i_25/U4
*907 reg_1/FD_i_26/Q_reg
*908 reg_1/FD_i_26/U3
*909 reg_1/FD_i_26/U4
*910 reg_1/FD_i_27/Q_reg
*911 reg_1/FD_i_27/U3
*912 reg_1/FD_i_27/U4
*913 reg_1/FD_i_28/Q_reg
*914 reg_1/FD_i_28/U3
*915 reg_1/FD_i_28/U4
*916 reg_1/FD_i_29/Q_reg
*917 reg_1/FD_i_29/U3
*918 reg_1/FD_i_29/U4
*919 reg_1/FD_i_30/Q_reg
*920 reg_1/FD_i_30/U3
*921 reg_1/FD_i_30/U4
*922 reg_1/FD_i_31/Q_reg
*923 reg_1/FD_i_31/U3
*924 reg_1/FD_i_31/U4
*925 reg_2/FD_i_0/Q_reg
*926 reg_2/FD_i_0/U3
*927 reg_2/FD_i_0/U4
*928 reg_2/FD_i_1/Q_reg
*929 reg_2/FD_i_1/U3
*930 reg_2/FD_i_1/U4
*931 reg_2/FD_i_2/Q_reg
*932 reg_2/FD_i_2/U3
*933 reg_2/FD_i_2/U4
*934 reg_2/FD_i_3/Q_reg
*935 reg_2/FD_i_3/U3
*936 reg_2/FD_i_3/U4
*937 reg_2/FD_i_4/Q_reg
*938 reg_2/FD_i_4/U3
*939 reg_2/FD_i_4/U4
*940 reg_2/FD_i_5/Q_reg
*941 reg_2/FD_i_5/U3
*942 reg_2/FD_i_5/U4
*943 reg_2/FD_i_6/Q_reg
*944 reg_2/FD_i_6/U3
*945 reg_2/FD_i_6/U4
*946 reg_2/FD_i_7/Q_reg
*947 reg_2/FD_i_7/U3
*948 reg_2/FD_i_7/U4
*949 reg_2/FD_i_8/Q_reg
*950 reg_2/FD_i_8/U3
*951 reg_2/FD_i_8/U4
*952 reg_2/FD_i_9/Q_reg
*953 reg_2/FD_i_9/U3
*954 reg_2/FD_i_9/U4
*955 reg_2/FD_i_10/Q_reg
*956 reg_2/FD_i_10/U3
*957 reg_2/FD_i_10/U4
*958 reg_2/FD_i_11/Q_reg
*959 reg_2/FD_i_11/U3
*960 reg_2/FD_i_11/U4
*961 reg_2/FD_i_12/Q_reg
*962 reg_2/FD_i_12/U3
*963 reg_2/FD_i_12/U4
*964 reg_2/FD_i_13/Q_reg
*965 reg_2/FD_i_13/U3
*966 reg_2/FD_i_13/U4
*967 reg_2/FD_i_14/Q_reg
*968 reg_2/FD_i_14/U3
*969 reg_2/FD_i_14/U4
*970 reg_2/FD_i_15/Q_reg
*971 reg_2/FD_i_15/U3
*972 reg_2/FD_i_15/U4
*973 reg_2/FD_i_16/Q_reg
*974 reg_2/FD_i_16/U3
*975 reg_2/FD_i_16/U4
*976 reg_2/FD_i_17/Q_reg
*977 reg_2/FD_i_17/U3
*978 reg_2/FD_i_17/U4
*979 reg_2/FD_i_18/Q_reg
*980 reg_2/FD_i_18/U3
*981 reg_2/FD_i_18/U4
*982 reg_2/FD_i_19/Q_reg
*983 reg_2/FD_i_19/U3
*984 reg_2/FD_i_19/U4
*985 reg_2/FD_i_20/Q_reg
*986 reg_2/FD_i_20/U3
*987 reg_2/FD_i_20/U4
*988 reg_2/FD_i_21/Q_reg
*989 reg_2/FD_i_21/U3
*990 reg_2/FD_i_21/U4
*991 reg_2/FD_i_22/Q_reg
*992 reg_2/FD_i_22/U3
*993 reg_2/FD_i_22/U4
*994 reg_2/FD_i_23/Q_reg
*995 reg_2/FD_i_23/U3
*996 reg_2/FD_i_23/U4
*997 reg_2/FD_i_24/Q_reg
*998 reg_2/FD_i_24/U3
*999 reg_2/FD_i_24/U4
*1000 reg_2/FD_i_25/Q_reg
*1001 reg_2/FD_i_25/U3
*1002 reg_2/FD_i_25/U4
*1003 reg_2/FD_i_26/Q_reg
*1004 reg_2/FD_i_26/U3
*1005 reg_2/FD_i_26/U4
*1006 reg_2/FD_i_27/Q_reg
*1007 reg_2/FD_i_27/U3
*1008 reg_2/FD_i_27/U4
*1009 reg_2/FD_i_28/Q_reg
*1010 reg_2/FD_i_28/U3
*1011 reg_2/FD_i_28/U4
*1012 reg_2/FD_i_29/Q_reg
*1013 reg_2/FD_i_29/U3
*1014 reg_2/FD_i_29/U4
*1015 reg_2/FD_i_30/Q_reg
*1016 reg_2/FD_i_30/U3
*1017 reg_2/FD_i_30/U4
*1018 reg_2/FD_i_31/Q_reg
*1019 reg_2/FD_i_31/U3
*1020 reg_2/FD_i_31/U4
*1021 reg_out/FD_i_0/Q_reg
*1022 reg_out/FD_i_0/U3
*1023 reg_out/FD_i_0/U4
*1024 reg_out/FD_i_1/Q_reg
*1025 reg_out/FD_i_1/U3
*1026 reg_out/FD_i_2/Q_reg
*1027 reg_out/FD_i_2/U3
*1028 reg_out/FD_i_3/Q_reg
*1029 reg_out/FD_i_3/U3
*1030 reg_out/FD_i_4/Q_reg
*1031 reg_out/FD_i_4/U3
*1032 reg_out/FD_i_5/Q_reg
*1033 reg_out/FD_i_5/U3
*1034 reg_out/FD_i_6/Q_reg
*1035 reg_out/FD_i_6/U3
*1036 reg_out/FD_i_7/Q_reg
*1037 reg_out/FD_i_7/U3
*1038 reg_out/FD_i_8/Q_reg
*1039 reg_out/FD_i_8/U3
*1040 reg_out/FD_i_9/Q_reg
*1041 reg_out/FD_i_9/U3
*1042 reg_out/FD_i_10/Q_reg
*1043 reg_out/FD_i_10/U3
*1044 reg_out/FD_i_11/Q_reg
*1045 reg_out/FD_i_11/U3
*1046 reg_out/FD_i_12/Q_reg
*1047 reg_out/FD_i_12/U3
*1048 reg_out/FD_i_13/Q_reg
*1049 reg_out/FD_i_13/U3
*1050 reg_out/FD_i_14/Q_reg
*1051 reg_out/FD_i_14/U3
*1052 reg_out/FD_i_15/Q_reg
*1053 reg_out/FD_i_15/U4
*1054 reg_out/FD_i_16/Q_reg
*1055 reg_out/FD_i_16/U3
*1056 reg_out/FD_i_17/Q_reg
*1057 reg_out/FD_i_17/U3
*1058 reg_out/FD_i_18/Q_reg
*1059 reg_out/FD_i_18/U3
*1060 reg_out/FD_i_19/Q_reg
*1061 reg_out/FD_i_19/U3
*1062 reg_out/FD_i_20/Q_reg
*1063 reg_out/FD_i_20/U3
*1064 reg_out/FD_i_21/Q_reg
*1065 reg_out/FD_i_21/U3
*1066 reg_out/FD_i_21/U4
*1067 reg_out/FD_i_22/Q_reg
*1068 reg_out/FD_i_22/U3
*1069 reg_out/FD_i_22/U4
*1070 reg_out/FD_i_23/Q_reg
*1071 reg_out/FD_i_23/U3
*1072 reg_out/FD_i_23/U4
*1073 reg_out/FD_i_24/Q_reg
*1074 reg_out/FD_i_24/U3
*1075 reg_out/FD_i_24/U4
*1076 reg_out/FD_i_25/Q_reg
*1077 reg_out/FD_i_25/U3