*SPEF "IEEE 1481-1998"
*DESIGN "SUM"
*DATE "Tue Jun 16 17:22:38 2020"
*VENDOR "Cadence Design Systems, Inc."
*PROGRAM "Innovus"
*VERSION "17.11-s080_1"
*DESIGN_FLOW "COUPLING C" "PIN_CAP NONE" "NAME_SCOPE LOCAL"
*DIVIDER /
*DELIMITER :
*BUS_DELIMITER []
*T_UNIT 1 NS
*C_UNIT 1 PF
*R_UNIT 1 OHM
*L_UNIT 1 HENRY

// MMMC spef file for corner 'standard'

*NAME_MAP

*1 FE_PHN271_RST
*2 FE_PHN270_RST
*3 FE_PHN269_RST
*4 FE_PHN268_RST
*5 FE_PHN267_RST
*6 FE_PHN266_RST
*7 FE_PHN265_RST
*8 FE_PHN264_RST
*9 FE_PHN263_B_3
*10 FE_PHN262_B_5
*11 FE_PHN261_B_4
*12 FE_PHN260_A_107
*13 FE_PHN259_B_6
*14 FE_PHN258_B_2
*15 FE_PHN257_A_109
*16 FE_PHN256_A_108
*17 FE_PHN255_B_19
*18 FE_PHN254_B_13
*19 FE_PHN253_B_9
*20 FE_PHN252_B_7
*21 FE_PHN251_B_1
*22 FE_PHN250_B_0
*23 FE_PHN249_A_110
*24 FE_PHN248_B_18
*25 FE_PHN247_B_12
*26 FE_PHN246_B_8
*27 FE_PHN245_A_122
*28 FE_PHN244_A_111
*29 FE_PHN243_A_106
*30 FE_PHN242_A_105
*31 FE_PHN241_B_15
*32 FE_PHN240_B_14
*33 FE_PHN239_B_11
*34 FE_PHN238_A_117
*35 FE_PHN237_A_103
*36 FE_PHN236_A_38
*37 FE_PHN235_A_37
*38 FE_PHN234_A_36
*39 FE_PHN233_A_34
*40 FE_PHN232_A_31
*41 FE_PHN231_B_21
*42 FE_PHN230_B_17
*43 FE_PHN229_A_114
*44 FE_PHN228_A_113
*45 FE_PHN227_A_112
*46 FE_PHN226_A_104
*47 FE_PHN225_A_102
*48 FE_PHN224_A_35
*49 FE_PHN223_B_20
*50 FE_PHN222_B_16
*51 FE_PHN221_B_10
*52 FE_PHN220_A_119
*53 FE_PHN219_A_115
*54 FE_PHN218_A_39
*55 FE_PHN217_A_33
*56 FE_PHN216_A_30
*57 FE_PHN215_A_17
*58 FE_PHN214_A_0
*59 FE_PHN213_B_95
*60 FE_PHN212_B_24
*61 FE_PHN211_A_127
*62 FE_PHN210_A_126
*63 FE_PHN209_A_125
*64 FE_PHN208_A_123
*65 FE_PHN207_A_121
*66 FE_PHN206_A_120
*67 FE_PHN205_A_118
*68 FE_PHN204_A_116
*69 FE_PHN203_A_101
*70 FE_PHN202_A_100
*71 FE_PHN201_A_44
*72 FE_PHN200_A_43
*73 FE_PHN199_A_32
*74 FE_PHN198_A_21
*75 FE_PHN197_A_20
*76 FE_PHN196_A_19
*77 FE_PHN195_B_101
*78 FE_PHN194_B_94
*79 FE_PHN193_B_31
*80 FE_PHN192_B_25
*81 FE_PHN191_B_23
*82 FE_PHN190_B_22
*83 FE_PHN189_A_22
*84 FE_PHN188_A_2
*85 FE_PHN187_A_1
*86 FE_PHN186_B_96
*87 FE_PHN185_B_43
*88 FE_PHN184_B_38
*89 FE_PHN183_B_36
*90 FE_PHN182_B_35
*91 FE_PHN181_B_34
*92 FE_PHN180_A_124
*93 FE_PHN179_A_42
*94 FE_PHN178_A_29
*95 FE_PHN177_A_18
*96 FE_PHN176_A_16
*97 FE_PHN175_A_15
*98 FE_PHN174_B_102
*99 FE_PHN173_B_100
*100 FE_PHN172_B_44
*101 FE_PHN171_B_39
*102 FE_PHN170_B_37
*103 FE_PHN169_B_30
*104 FE_PHN168_B_29
*105 FE_PHN167_A_99
*106 FE_PHN166_A_97
*107 FE_PHN165_A_41
*108 FE_PHN164_A_40
*109 FE_PHN163_A_28
*110 FE_PHN162_A_25
*111 FE_PHN161_A_24
*112 FE_PHN160_A_23
*113 FE_PHN159_A_4
*114 FE_PHN158_A_3
*115 FE_PHN157_B_103
*116 FE_PHN156_B_99
*117 FE_PHN155_B_98
*118 FE_PHN154_B_92
*119 FE_PHN153_B_28
*120 FE_PHN152_B_26
*121 FE_PHN151_A_46
*122 FE_PHN150_A_45
*123 FE_PHN149_A_27
*124 FE_PHN148_A_13
*125 FE_PHN147_A_5
*126 FE_PHN146_B_106
*127 FE_PHN145_B_97
*128 FE_PHN144_B_93
*129 FE_PHN143_B_88
*130 FE_PHN142_B_45
*131 FE_PHN141_B_32
*132 FE_PHN140_A_96
*133 FE_PHN139_A_47
*134 FE_PHN138_A_26
*135 FE_PHN137_A_14
*136 FE_PHN136_B_114
*137 FE_PHN135_B_87
*138 FE_PHN134_B_86
*139 FE_PHN133_B_78
*140 FE_PHN132_B_77
*141 FE_PHN131_B_42
*142 FE_PHN130_B_40
*143 FE_PHN129_B_33
*144 FE_PHN128_A_98
*145 FE_PHN127_A_95
*146 FE_PHN126_A_93
*147 FE_PHN125_A_12
*148 FE_PHN124_B_27
*149 FE_PHN123_A_68
*150 FE_PHN122_A_50
*151 FE_PHN121_A_49
*152 FE_PHN120_A_48
*153 FE_PHN119_A_11
*154 FE_PHN118_A_10
*155 FE_PHN117_A_6
*156 FE_PHN116_B_104
*157 FE_PHN115_B_91
*158 FE_PHN114_B_90
*159 FE_PHN113_B_83
*160 FE_PHN112_B_47
*161 FE_PHN111_B_46
*162 FE_PHN110_B_41
*163 FE_PHN109_A_91
*164 FE_PHN108_A_90
*165 FE_PHN107_A_51
*166 FE_PHN106_B_127
*167 FE_PHN105_B_115
*168 FE_PHN104_B_113
*169 FE_PHN103_B_110
*170 FE_PHN102_B_108
*171 FE_PHN101_B_107
*172 FE_PHN100_B_105
*173 FE_PHN99_B_89
*174 FE_PHN98_B_85
*175 FE_PHN97_B_80
*176 FE_PHN96_B_76
*177 FE_PHN95_B_75
*178 FE_PHN94_B_62
*179 FE_PHN93_B_61
*180 FE_PHN92_B_48
*181 FE_PHN91_A_94
*182 FE_PHN90_A_92
*183 FE_PHN89_A_89
*184 FE_PHN88_A_82
*185 FE_PHN87_A_72
*186 FE_PHN86_A_69
*187 FE_PHN85_A_55
*188 FE_PHN84_A_53
*189 FE_PHN83_A_9
*190 FE_PHN82_A_7
*191 FE_PHN81_B_126
*192 FE_PHN80_B_118
*193 FE_PHN79_B_117
*194 FE_PHN78_B_116
*195 FE_PHN77_B_112
*196 FE_PHN76_B_109
*197 FE_PHN75_B_84
*198 FE_PHN74_B_81
*199 FE_PHN73_B_79
*200 FE_PHN72_B_74
*201 FE_PHN71_B_63
*202 FE_PHN70_B_59
*203 FE_PHN69_A_83
*204 FE_PHN68_A_70
*205 FE_PHN67_A_67
*206 FE_PHN66_A_66
*207 FE_PHN65_A_65
*208 FE_PHN64_A_60
*209 FE_PHN63_A_58
*210 FE_PHN62_A_52
*211 FE_PHN61_A_8
*212 FE_PHN60_B_125
*213 FE_PHN59_B_124
*214 FE_PHN58_B_121
*215 FE_PHN57_B_120
*216 FE_PHN56_B_82
*217 FE_PHN55_B_73
*218 FE_PHN54_B_71
*219 FE_PHN53_B_64
*220 FE_PHN52_B_57
*221 FE_PHN51_B_53
*222 FE_PHN50_B_49
*223 FE_PHN49_A_88
*224 FE_PHN48_A_81
*225 FE_PHN47_A_79
*226 FE_PHN46_A_73
*227 FE_PHN45_A_71
*228 FE_PHN44_A_64
*229 FE_PHN43_A_57
*230 FE_PHN42_A_56
*231 FE_PHN41_A_54
*232 FE_PHN40_B_119
*233 FE_PHN39_B_111
*234 FE_PHN38_B_66
*235 FE_PHN37_B_65
*236 FE_PHN36_B_60
*237 FE_PHN35_B_58
*238 FE_PHN34_B_54
*239 FE_PHN33_B_52
*240 FE_PHN32_B_51
*241 FE_PHN31_B_50
*242 FE_PHN30_A_87
*243 FE_PHN29_A_86
*244 FE_PHN28_A_85
*245 FE_PHN27_A_84
*246 FE_PHN26_A_80
*247 FE_PHN25_A_75
*248 FE_PHN24_A_74
*249 FE_PHN23_A_63
*250 FE_PHN22_A_62
*251 FE_PHN21_A_61
*252 FE_PHN20_A_59
*253 FE_PHN19_B_123
*254 FE_PHN18_B_122
*255 FE_PHN17_B_72
*256 FE_PHN16_B_70
*257 FE_PHN15_B_69
*258 FE_PHN14_B_67
*259 FE_PHN13_B_56
*260 FE_PHN12_B_55
*261 FE_PHN11_A_78
*262 FE_PHN10_A_77
*263 FE_PHN9_A_76
*264 FE_PHN8_B_68
*265 FE_PHN7_Ci
*266 FE_OFN6_n386
*267 FE_OFN5_n386
*268 FE_OFN4_n386
*269 FE_OFN3_n386
*270 FE_OFN2_n386
*271 FE_OFN1_n386
*272 FE_OFN0_n386
*273 A[127]
*274 A[126]
*275 A[125]
*276 A[124]
*277 A[123]
*278 A[122]
*279 A[121]
*280 A[120]
*281 A[119]
*282 A[118]
*283 A[117]
*284 A[116]
*285 A[115]
*286 A[114]
*287 A[113]
*288 A[112]
*289 A[111]
*290 A[110]
*291 A[109]
*292 A[108]
*293 A[107]
*294 A[106]
*295 A[105]
*296 A[104]
*297 A[103]
*298 A[102]
*299 A[101]
*300 A[100]
*301 A[99]
*302 A[98]
*303 A[97]
*304 A[96]
*305 A[95]
*306 A[94]
*307 A[93]
*308 A[92]
*309 A[91]
*310 A[90]
*311 A[89]
*312 A[88]
*313 A[87]
*314 A[86]
*315 A[85]
*316 A[84]
*317 A[83]
*318 A[82]
*319 A[81]
*320 A[80]
*321 A[79]
*322 A[78]
*323 A[77]
*324 A[76]
*325 A[75]
*326 A[74]
*327 A[73]
*328 A[72]
*329 A[71]
*330 A[70]
*331 A[69]
*332 A[68]
*333 A[67]
*334 A[66]
*335 A[65]
*336 A[64]
*337 A[63]
*338 A[62]
*339 A[61]
*340 A[60]
*341 A[59]
*342 A[58]
*343 A[57]
*344 A[56]
*345 A[55]
*346 A[54]
*347 A[53]
*348 A[52]
*349 A[51]
*350 A[50]
*351 A[49]
*352 A[48]
*353 A[47]
*354 A[46]
*355 A[45]
*356 A[44]
*357 A[43]
*358 A[42]
*359 A[41]
*360 A[40]
*361 A[39]
*362 A[38]
*363 A[37]
*364 A[36]
*365 A[35]
*366 A[34]
*367 A[33]
*368 A[32]
*369 A[31]
*370 A[30]
*371 A[29]
*372 A[28]
*373 A[27]
*374 A[26]
*375 A[25]
*376 A[24]
*377 A[23]
*378 A[22]
*379 A[21]
*380 A[20]
*381 A[19]
*382 A[18]
*383 A[17]
*384 A[16]
*385 A[15]
*386 A[14]
*387 A[13]
*388 A[12]
*389 A[11]
*390 A[10]
*391 A[9]
*392 A[8]
*393 A[7]
*394 A[6]
*395 A[5]
*396 A[4]
*397 A[3]
*398 A[2]
*399 A[1]
*400 A[0]
*401 B[127]
*402 B[126]
*403 B[125]
*404 B[124]
*405 B[123]
*406 B[122]
*407 B[121]
*408 B[120]
*409 B[119]
*410 B[118]
*411 B[117]
*412 B[116]
*413 B[115]
*414 B[114]
*415 B[113]
*416 B[112]
*417 B[111]
*418 B[110]
*419 B[109]
*420 B[108]
*421 B[107]
*422 B[106]
*423 B[105]
*424 B[104]
*425 B[103]
*426 B[102]
*427 B[101]
*428 B[100]
*429 B[99]
*430 B[98]
*431 B[97]
*432 B[96]
*433 B[95]
*434 B[94]
*435 B[93]
*436 B[92]
*437 B[91]
*438 B[90]
*439 B[89]
*440 B[88]
*441 B[87]
*442 B[86]
*443 B[85]
*444 B[84]
*445 B[83]
*446 B[82]
*447 B[81]
*448 B[80]
*449 B[79]
*450 B[78]
*451 B[77]
*452 B[76]
*453 B[75]
*454 B[74]
*455 B[73]
*456 B[72]
*457 B[71]
*458 B[70]
*459 B[69]
*460 B[68]
*461 B[67]
*462 B[66]
*463 B[65]
*464 B[64]
*465 B[63]
*466 B[62]
*467 B[61]
*468 B[60]
*469 B[59]
*470 B[58]
*471 B[57]
*472 B[56]
*473 B[55]
*474 B[54]
*475 B[53]
*476 B[52]
*477 B[51]
*478 B[50]
*479 B[49]
*480 B[48]
*481 B[47]
*482 B[46]
*483 B[45]
*484 B[44]
*485 B[43]
*486 B[42]
*487 B[41]
*488 B[40]
*489 B[39]
*490 B[38]
*491 B[37]
*492 B[36]
*493 B[35]
*494 B[34]
*495 B[33]
*496 B[32]
*497 B[31]
*498 B[30]
*499 B[29]
*500 B[28]
*501 B[27]
*502 B[26]
*503 B[25]
*504 B[24]
*505 B[23]
*506 B[22]
*507 B[21]
*508 B[20]
*509 B[19]
*510 B[18]
*511 B[17]
*512 B[16]
*513 B[15]
*514 B[14]
*515 B[13]
*516 B[12]
*517 B[11]
*518 B[10]
*519 B[9]
*520 B[8]
*521 B[7]
*522 B[6]
*523 B[5]
*524 B[4]
*525 B[3]
*526 B[2]
*527 B[1]
*528 B[0]
*529 S[127]
*530 S[126]
*531 S[125]
*532 S[124]
*533 S[123]
*534 S[122]
*535 S[121]
*536 S[120]
*537 S[119]
*538 S[118]
*539 S[117]
*540 S[116]
*541 S[115]
*542 S[114]
*543 S[113]
*544 S[112]
*545 S[111]
*546 S[110]
*547 S[109]
*548 S[108]
*549 S[107]
*550 S[106]
*551 S[105]
*552 S[104]
*553 S[103]
*554 S[102]
*555 S[101]
*556 S[100]
*557 S[99]
*558 S[98]
*559 S[97]
*560 S[96]
*561 S[95]
*562 S[94]
*563 S[93]
*564 S[92]
*565 S[91]
*566 S[90]
*567 S[89]
*568 S[88]
*569 S[87]
*570 S[86]
*571 S[85]
*572 S[84]
*573 S[83]
*574 S[82]
*575 S[81]
*576 S[80]
*577 S[79]
*578 S[78]
*579 S[77]
*580 S[76]
*581 S[75]
*582 S[74]
*583 S[73]
*584 S[72]
*585 S[71]
*586 S[70]
*587 S[69]
*588 S[68]
*589 S[67]
*590 S[66]
*591 S[65]
*592 S[64]
*593 S[63]
*594 S[62]
*595 S[61]
*596 S[60]
*597 S[59]
*598 S[58]
*599 S[57]
*600 S[56]
*601 S[55]
*602 S[54]
*603 S[53]
*604 S[52]
*605 S[51]
*606 S[50]
*607 S[49]
*608 S[48]
*609 S[47]
*610 S[46]
*611 S[45]
*612 S[44]
*613 S[43]
*614 S[42]
*615 S[41]
*616 S[40]
*617 S[39]
*618 S[38]
*619 S[37]
*620 S[36]
*621 S[35]
*622 S[34]
*623 S[33]
*624 S[32]
*625 S[31]
*626 S[30]
*627 S[29]
*628 S[28]
*629 S[27]
*630 S[26]
*631 S[25]
*632 S[24]
*633 S[23]
*634 S[22]
*635 S[21]
*636 S[20]
*637 S[19]
*638 S[18]
*639 S[17]
*640 S[16]
*641 S[15]
*642 S[14]
*643 S[13]
*644 S[12]
*645 S[11]
*646 S[10]
*647 S[9]
*648 S[8]
*649 S[7]
*650 S[6]
*651 S[5]
*652 S[4]
*653 S[3]
*654 S[2]
*655 S[1]
*656 S[0]
*657 Ci
*658 CLK
*659 RST
*660 Co
*661 CITMP
*662 COTMP
*663 n386
*664 ATMP[127]
*665 ATMP[126]
*666 ATMP[125]
*667 ATMP[124]
*668 ATMP[123]
*669 ATMP[122]
*670 ATMP[121]
*671 ATMP[120]
*672 ATMP[119]
*673 ATMP[118]
*674 ATMP[117]
*675 ATMP[116]
*676 ATMP[115]
*677 ATMP[114]
*678 ATMP[113]
*679 ATMP[112]
*680 ATMP[111]
*681 ATMP[110]
*682 ATMP[109]
*683 ATMP[108]
*684 ATMP[107]
*685 ATMP[106]
*686 ATMP[105]
*687 ATMP[104]
*688 ATMP[103]
*689 ATMP[102]
*690 ATMP[101]
*691 ATMP[100]
*692 ATMP[99]
*693 ATMP[98]
*694 ATMP[97]
*695 ATMP[96]
*696 ATMP[95]
*697 ATMP[94]
*698 ATMP[93]
*699 ATMP[92]
*700 ATMP[91]
*701 ATMP[90]
*702 ATMP[89]
*703 ATMP[88]
*704 ATMP[87]
*705 ATMP[86]
*706 ATMP[85]
*707 ATMP[84]
*708 ATMP[83]
*709 ATMP[82]
*710 ATMP[81]
*711 ATMP[80]
*712 ATMP[79]
*713 ATMP[78]
*714 ATMP[77]
*715 ATMP[76]
*716 ATMP[75]
*717 ATMP[74]
*718 ATMP[73]
*719 ATMP[72]
*720 ATMP[71]
*721 ATMP[70]
*722 ATMP[69]
*723 ATMP[68]
*724 ATMP[67]
*725 ATMP[66]
*726 ATMP[65]
*727 ATMP[64]
*728 ATMP[63]
*729 ATMP[62]
*730 ATMP[61]
*731 ATMP[60]
*732 ATMP[59]
*733 ATMP[58]
*734 ATMP[57]
*735 ATMP[56]
*736 ATMP[55]
*737 ATMP[54]
*738 ATMP[53]
*739 ATMP[52]
*740 ATMP[51]
*741 ATMP[50]
*742 ATMP[49]
*743 ATMP[48]
*744 ATMP[47]
*745 ATMP[46]
*746 ATMP[45]
*747 ATMP[44]
*748 ATMP[43]
*749 ATMP[42]
*750 ATMP[41]
*751 ATMP[40]
*752 ATMP[39]
*753 ATMP[38]
*754 ATMP[37]
*755 ATMP[36]
*756 ATMP[35]
*757 ATMP[34]
*758 ATMP[33]
*759 ATMP[32]
*760 ATMP[31]
*761 ATMP[30]
*762 ATMP[29]
*763 ATMP[28]
*764 ATMP[27]
*765 ATMP[26]
*766 ATMP[25]
*767 ATMP[24]
*768 ATMP[23]
*769 ATMP[22]
*770 ATMP[21]
*771 ATMP[20]
*772 ATMP[19]
*773 ATMP[18]
*774 ATMP[17]
*775 ATMP[16]
*776 ATMP[15]
*777 ATMP[14]
*778 ATMP[13]
*779 ATMP[12]
*780 ATMP[11]
*781 ATMP[10]
*782 ATMP[9]
*783 ATMP[8]
*784 ATMP[7]
*785 ATMP[6]
*786 ATMP[5]
*787 ATMP[4]
*788 ATMP[3]
*789 ATMP[2]
*790 ATMP[1]
*791 ATMP[0]
*792 BTMP[127]
*793 BTMP[126]
*794 BTMP[125]
*795 BTMP[124]
*796 BTMP[123]
*797 BTMP[122]
*798 BTMP[121]
*799 BTMP[120]
*800 BTMP[119]
*801 BTMP[118]
*802 BTMP[117]
*803 BTMP[116]
*804 BTMP[115]
*805 BTMP[114]
*806 BTMP[113]
*807 BTMP[112]
*808 BTMP[111]
*809 BTMP[110]
*810 BTMP[109]
*811 BTMP[108]
*812 BTMP[107]
*813 BTMP[106]
*814 BTMP[105]
*815 BTMP[104]
*816 BTMP[103]
*817 BTMP[102]
*818 BTMP[101]
*819 BTMP[100]
*820 BTMP[99]
*821 BTMP[98]
*822 BTMP[97]
*823 BTMP[96]
*824 BTMP[95]
*825 BTMP[94]
*826 BTMP[93]
*827 BTMP[92]
*828 BTMP[91]
*829 BTMP[90]
*830 BTMP[89]
*831 BTMP[88]
*832 BTMP[87]
*833 BTMP[86]
*834 BTMP[85]
*835 BTMP[84]
*836 BTMP[83]
*837 BTMP[82]
*838 BTMP[81]
*839 BTMP[80]
*840 BTMP[79]
*841 BTMP[78]
*842 BTMP[77]
*843 BTMP[76]
*844 BTMP[75]
*845 BTMP[74]
*846 BTMP[73]
*847 BTMP[72]
*848 BTMP[71]
*849 BTMP[70]
*850 BTMP[69]
*851 BTMP[68]
*852 BTMP[67]
*853 BTMP[66]
*854 BTMP[65]
*855 BTMP[64]
*856 BTMP[63]
*857 BTMP[62]
*858 BTMP[61]
*859 BTMP[60]
*860 BTMP[59]
*861 BTMP[58]
*862 BTMP[57]
*863 BTMP[56]
*864 BTMP[55]
*865 BTMP[54]
*866 BTMP[53]
*867 BTMP[52]
*868 BTMP[51]
*869 BTMP[50]
*870 BTMP[49]
*871 BTMP[48]
*872 BTMP[47]
*873 BTMP[46]
*874 BTMP[45]
*875 BTMP[44]
*876 BTMP[43]
*877 BTMP[42]
*878 BTMP[41]
*879 BTMP[40]
*880 BTMP[39]
*881 BTMP[38]
*882 BTMP[37]
*883 BTMP[36]
*884 BTMP[35]
*885 BTMP[34]
*886 BTMP[33]
*887 BTMP[32]
*888 BTMP[31]
*889 BTMP[30]
*890 BTMP[29]
*891 BTMP[28]
*892 BTMP[27]
*893 BTMP[26]
*894 BTMP[25]
*895 BTMP[24]
*896 BTMP[23]
*897 BTMP[22]
*898 BTMP[21]
*899 BTMP[20]
*900 BTMP[19]
*901 BTMP[18]
*902 BTMP[17]
*903 BTMP[16]
*904 BTMP[15]
*905 BTMP[14]
*906 BTMP[13]
*907 BTMP[12]
*908 BTMP[11]
*909 BTMP[10]
*910 BTMP[9]
*911 BTMP[8]
*912 BTMP[7]
*913 BTMP[6]
*914 BTMP[5]
*915 BTMP[4]
*916 BTMP[3]
*917 BTMP[2]
*918 BTMP[1]
*919 BTMP[0]
*920 STMP[127]
*921 STMP[126]
*922 STMP[125]
*923 STMP[124]
*924 STMP[123]
*925 STMP[122]
*926 STMP[121]
*927 STMP[120]
*928 STMP[119]
*929 STMP[118]
*930 STMP[117]
*931 STMP[116]
*932 STMP[115]
*933 STMP[114]
*934 STMP[113]
*935 STMP[112]
*936 STMP[111]
*937 STMP[110]
*938 STMP[109]
*939 STMP[108]
*940 STMP[107]
*941 STMP[106]
*942 STMP[105]
*943 STMP[104]
*944 STMP[103]
*945 STMP[102]
*946 STMP[101]
*947 STMP[100]
*948 STMP[99]
*949 STMP[98]
*950 STMP[97]
*951 STMP[96]
*952 STMP[95]
*953 STMP[94]
*954 STMP[93]
*955 STMP[92]
*956 STMP[91]
*957 STMP[90]
*958 STMP[89]
*959 STMP[88]
*960 STMP[87]
*961 STMP[86]
*962 STMP[85]
*963 STMP[84]
*964 STMP[83]
*965 STMP[82]
*966 STMP[81]
*967 STMP[80]
*968 STMP[79]
*969 STMP[78]
*970 STMP[77]
*971 STMP[76]
*972 STMP[75]
*973 STMP[74]
*974 STMP[73]
*975 STMP[72]
*976 STMP[71]
*977 STMP[70]
*978 STMP[69]
*979 STMP[68]
*980 STMP[67]
*981 STMP[66]
*982 STMP[65]
*983 STMP[64]
*984 STMP[63]
*985 STMP[62]
*986 STMP[61]
*987 STMP[60]
*988 STMP[59]
*989 STMP[58]
*990 STMP[57]
*991 STMP[56]
*992 STMP[55]
*993 STMP[54]
*994 STMP[53]
*995 STMP[52]
*996 STMP[51]
*997 STMP[50]
*998 STMP[49]
*999 STMP[48]
*1000 STMP[47]
*1001 STMP[46]
*1002 STMP[45]
*1003 STMP[44]
*1004 STMP[43]
*1005 STMP[42]
*1006 STMP[41]
*1007 STMP[40]
*1008 STMP[39]
*1009 STMP[38]
*1010 STMP[37]
*1011 STMP[36]
*1012 STMP[35]
*1013 STMP[34]
*1014 STMP[33]
*1015 STMP[32]
*1016 STMP[31]
*1017 STMP[30]
*1018 STMP[29]
*1019 STMP[28]
*1020 STMP[27]
*1021 STMP[26]
*1022 STMP[25]
*1023 STMP[24]
*1024 STMP[23]
*1025 STMP[22]
*1026 STMP[21]
*1027 STMP[20]
*1028 STMP[19]
*1029 STMP[18]
*1030 STMP[17]
*1031 STMP[16]
*1032 STMP[15]
*1033 STMP[14]
*1034 STMP[13]
*1035 STMP[12]
*1036 STMP[11]
*1037 STMP[10]
*1038 STMP[9]
*1039 STMP[8]
*1040 STMP[7]
*1041 STMP[6]
*1042 STMP[5]
*1043 STMP[4]
*1044 STMP[3]
*1045 STMP[2]
*1046 STMP[1]
*1047 STMP[0]
*1048 maprca/CTMP[127]
*1049 maprca/CTMP[126]
*1050 maprca/CTMP[125]
*1051 maprca/CTMP[124]
*1052 maprca/CTMP[123]
*1053 maprca/CTMP[122]
*1054 maprca/CTMP[121]
*1055 maprca/CTMP[120]
*1056 maprca/CTMP[119]
*1057 maprca/CTMP[118]
*1058 maprca/CTMP[117]
*1059 maprca/CTMP[116]
*1060 maprca/CTMP[115]
*1061 maprca/CTMP[114]
*1062 maprca/CTMP[113]
*1063 maprca/CTMP[112]
*1064 maprca/CTMP[111]
*1065 maprca/CTMP[110]
*1066 maprca/CTMP[109]
*1067 maprca/CTMP[108]
*1068 maprca/CTMP[107]
*1069 maprca/CTMP[106]
*1070 maprca/CTMP[105]
*1071 maprca/CTMP[104]
*1072 maprca/CTMP[103]
*1073 maprca/CTMP[102]
*1074 maprca/CTMP[101]
*1075 maprca/CTMP[100]
*1076 maprca/CTMP[99]
*1077 maprca/CTMP[98]
*1078 maprca/CTMP[97]
*1079 maprca/CTMP[96]
*1080 maprca/CTMP[95]
*1081 maprca/CTMP[94]
*1082 maprca/CTMP[93]
*1083 maprca/CTMP[92]
*1084 maprca/CTMP[91]
*1085 maprca/CTMP[90]
*1086 maprca/CTMP[89]
*1087 maprca/CTMP[88]
*1088 maprca/CTMP[87]
*1089 maprca/CTMP[86]
*1090 maprca/CTMP[85]
*1091 maprca/CTMP[84]
*1092 maprca/CTMP[83]
*1093 maprca/CTMP[82]
*1094 maprca/CTMP[81]
*1095 maprca/CTMP[80]
*1096 maprca/CTMP[79]
*1097 maprca/CTMP[78]
*1098 maprca/CTMP[77]
*1099 maprca/CTMP[76]
*1100 maprca/CTMP[75]
*1101 maprca/CTMP[74]
*1102 maprca/CTMP[73]
*1103 maprca/CTMP[72]
*1104 maprca/CTMP[71]
*1105 maprca/CTMP[70]
*1106 maprca/CTMP[69]
*1107 maprca/CTMP[68]
*1108 maprca/CTMP[67]
*1109 maprca/CTMP[66]
*1110 maprca/CTMP[65]
*1111 maprca/CTMP[64]
*1112 maprca/CTMP[63]
*1113 maprca/CTMP[62]
*1114 maprca/CTMP[61]
*1115 maprca/CTMP[60]
*1116 maprca/CTMP[59]
*1117 maprca/CTMP[58]
*1118 maprca/CTMP[57]
*1119 maprca/CTMP[56]
*1120 maprca/CTMP[55]
*1121 maprca/CTMP[54]
*1122 maprca/CTMP[53]
*1123 maprca/CTMP[52]
*1124 maprca/CTMP[51]
*1125 maprca/CTMP[50]
*1126 maprca/CTMP[49]
*1127 maprca/CTMP[48]
*1128 maprca/CTMP[47]
*1129 maprca/CTMP[46]
*1130 maprca/CTMP[45]
*1131 maprca/CTMP[44]
*1132 maprca/CTMP[43]
*1133 maprca/CTMP[42]
*1134 maprca/CTMP[41]
*1135 maprca/CTMP[40]
*1136 maprca/CTMP[39]
*1137 maprca/CTMP[38]
*1138 maprca/CTMP[37]
*1139 maprca/CTMP[36]
*1140 maprca/CTMP[35]
*1141 maprca/CTMP[34]
*1142 maprca/CTMP[33]
*1143 maprca/CTMP[32]
*1144 maprca/CTMP[31]
*1145 maprca/CTMP[30]
*1146 maprca/CTMP[29]
*1147 maprca/CTMP[28]
*1148 maprca/CTMP[27]
*1149 maprca/CTMP[26]
*1150 maprca/CTMP[25]
*1151 maprca/CTMP[24]
*1152 maprca/CTMP[23]
*1153 maprca/CTMP[22]
*1154 maprca/CTMP[21]
*1155 maprca/CTMP[20]
*1156 maprca/CTMP[19]
*1157 maprca/CTMP[18]
*1158 maprca/CTMP[17]
*1159 maprca/CTMP[16]
*1160 maprca/CTMP[15]
*1161 maprca/CTMP[14]
*1162 maprca/CTMP[13]
*1163 maprca/CTMP[12]
*1164 maprca/CTMP[11]
*1165 maprca/CTMP[10]
*1166 maprca/CTMP[9]
*1167 maprca/CTMP[8]
*1168 maprca/CTMP[7]
*1169 maprca/CTMP[6]
*1170 maprca/CTMP[5]
*1171 maprca/CTMP[4]
*1172 maprca/CTMP[3]
*1173 maprca/CTMP[2]
*1174 maprca/CTMP[1]
*1175 maprca/FAI_1/n1
*1176 maprca/FAI_1/n2
*1177 maprca/FAI_1/n3
*1178 maprca/FAI_2/n1
*1179 maprca/FAI_2/n2
*1180 maprca/FAI_2/n3
*1181 maprca/FAI_2/n4
*1182 maprca/FAI_3/n1
*1183 maprca/FAI_3/n2
*1184 maprca/FAI_3/n3
*1185 maprca/FAI_3/n4
*1186 maprca/FAI_4/n1
*1187 maprca/FAI_4/n2
*1188 maprca/FAI_4/n3
*1189 maprca/FAI_4/n4
*1190 maprca/FAI_5/n1
*1191 maprca/FAI_5/n2
*1192 maprca/FAI_5/n3
*1193 maprca/FAI_5/n4
*1194 maprca/FAI_6/n1
*1195 maprca/FAI_6/n2
*1196 maprca/FAI_6/n3
*1197 maprca/FAI_6/n4
*1198 maprca/FAI_7/n1
*1199 maprca/FAI_7/n2
*1200 maprca/FAI_7/n3
*1201 maprca/FAI_7/n4
*1202 maprca/FAI_8/n1
*1203 maprca/FAI_8/n2
*1204 maprca/FAI_8/n3
*1205 maprca/FAI_8/n4
*1206 maprca/FAI_9/n1
*1207 maprca/FAI_9/n2
*1208 maprca/FAI_9/n3
*1209 maprca/FAI_9/n4
*1210 maprca/FAI_10/n1
*1211 maprca/FAI_10/n2
*1212 maprca/FAI_10/n3
*1213 maprca/FAI_10/n4
*1214 maprca/FAI_11/n1
*1215 maprca/FAI_11/n2
*1216 maprca/FAI_11/n3
*1217 maprca/FAI_11/n4
*1218 maprca/FAI_12/n1
*1219 maprca/FAI_12/n2
*1220 maprca/FAI_12/n3
*1221 maprca/FAI_12/n4
*1222 maprca/FAI_13/n1
*1223 maprca/FAI_13/n2
*1224 maprca/FAI_13/n3
*1225 maprca/FAI_13/n4
*1226 maprca/FAI_14/n1
*1227 maprca/FAI_14/n2
*1228 maprca/FAI_14/n3
*1229 maprca/FAI_14/n4
*1230 maprca/FAI_15/n1
*1231 maprca/FAI_15/n2
*1232 maprca/FAI_15/n3
*1233 maprca/FAI_15/n4
*1234 maprca/FAI_16/n1
*1235 maprca/FAI_16/n2
*1236 maprca/FAI_16/n3
*1237 maprca/FAI_16/n4
*1238 maprca/FAI_17/n1
*1239 maprca/FAI_17/n2
*1240 maprca/FAI_17/n3
*1241 maprca/FAI_17/n4
*1242 maprca/FAI_18/n1
*1243 maprca/FAI_18/n2
*1244 maprca/FAI_18/n3
*1245 maprca/FAI_18/n4
*1246 maprca/FAI_19/n1
*1247 maprca/FAI_19/n2
*1248 maprca/FAI_19/n3
*1249 maprca/FAI_19/n4
*1250 maprca/FAI_20/n1
*1251 maprca/FAI_20/n2
*1252 maprca/FAI_20/n3
*1253 maprca/FAI_20/n4
*1254 maprca/FAI_21/n1
*1255 maprca/FAI_21/n2
*1256 maprca/FAI_21/n3
*1257 maprca/FAI_21/n4
*1258 maprca/FAI_22/n1
*1259 maprca/FAI_22/n2
*1260 maprca/FAI_22/n3
*1261 maprca/FAI_22/n4
*1262 maprca/FAI_23/n1
*1263 maprca/FAI_23/n2
*1264 maprca/FAI_23/n3
*1265 maprca/FAI_23/n4
*1266 maprca/FAI_24/n1
*1267 maprca/FAI_24/n2
*1268 maprca/FAI_24/n3
*1269 maprca/FAI_24/n4
*1270 maprca/FAI_25/n1
*1271 maprca/FAI_25/n2
*1272 maprca/FAI_25/n3
*1273 maprca/FAI_26/n1
*1274 maprca/FAI_26/n2
*1275 maprca/FAI_26/n3
*1276 maprca/FAI_27/n1
*1277 maprca/FAI_27/n2
*1278 maprca/FAI_27/n3
*1279 maprca/FAI_28/n1
*1280 maprca/FAI_28/n2
*1281 maprca/FAI_28/n3
*1282 maprca/FAI_29/n1
*1283 maprca/FAI_29/n2
*1284 maprca/FAI_29/n3
*1285 maprca/FAI_30/n1
*1286 maprca/FAI_30/n2
*1287 maprca/FAI_30/n3
*1288 maprca/FAI_31/n1
*1289 maprca/FAI_31/n2
*1290 maprca/FAI_31/n3
*1291 maprca/FAI_32/n1
*1292 maprca/FAI_32/n2
*1293 maprca/FAI_32/n3
*1294 maprca/FAI_33/n1
*1295 maprca/FAI_33/n2
*1296 maprca/FAI_33/n3
*1297 maprca/FAI_34/n1
*1298 maprca/FAI_34/n2
*1299 maprca/FAI_34/n3
*1300 maprca/FAI_35/n1
*1301 maprca/FAI_35/n2
*1302 maprca/FAI_35/n3
*1303 maprca/FAI_36/n1
*1304 maprca/FAI_36/n2
*1305 maprca/FAI_36/n3
*1306 maprca/FAI_37/n1
*1307 maprca/FAI_37/n2
*1308 maprca/FAI_37/n3
*1309 maprca/FAI_38/n1
*1310 maprca/FAI_38/n2
*1311 maprca/FAI_38/n3
*1312 maprca/FAI_39/n1
*1313 maprca/FAI_39/n2
*1314 maprca/FAI_39/n3
*1315 maprca/FAI_40/n1
*1316 maprca/FAI_40/n2
*1317 maprca/FAI_40/n3
*1318 maprca/FAI_41/n1
*1319 maprca/FAI_41/n2
*1320 maprca/FAI_41/n3
*1321 maprca/FAI_42/n1
*1322 maprca/FAI_42/n2
*1323 maprca/FAI_42/n3
*1324 maprca/FAI_43/n1
*1325 maprca/FAI_43/n2
*1326 maprca/FAI_43/n3
*1327 maprca/FAI_44/n1
*1328 maprca/FAI_44/n2
*1329 maprca/FAI_44/n3
*1330 maprca/FAI_45/n1
*1331 maprca/FAI_45/n2
*1332 maprca/FAI_45/n3
*1333 maprca/FAI_46/n1
*1334 maprca/FAI_46/n2
*1335 maprca/FAI_46/n3
*1336 maprca/FAI_47/n1
*1337 maprca/FAI_47/n2
*1338 maprca/FAI_47/n3
*1339 maprca/FAI_48/n1
*1340 maprca/FAI_48/n2
*1341 maprca/FAI_48/n3
*1342 maprca/FAI_49/n1
*1343 maprca/FAI_49/n2
*1344 maprca/FAI_49/n3
*1345 maprca/FAI_50/n1
*1346 maprca/FAI_50/n2
*1347 maprca/FAI_50/n3
*1348 maprca/FAI_51/n1
*1349 maprca/FAI_51/n2
*1350 maprca/FAI_51/n3
*1351 maprca/FAI_52/n1
*1352 maprca/FAI_52/n2
*1353 maprca/FAI_52/n3
*1354 maprca/FAI_53/n1
*1355 maprca/FAI_53/n2
*1356 maprca/FAI_53/n3
*1357 maprca/FAI_54/n1
*1358 maprca/FAI_54/n2
*1359 maprca/FAI_54/n3
*1360 maprca/FAI_55/n1
*1361 maprca/FAI_55/n2
*1362 maprca/FAI_55/n3
*1363 maprca/FAI_56/n1
*1364 maprca/FAI_56/n2
*1365 maprca/FAI_56/n3
*1366 maprca/FAI_57/n1
*1367 maprca/FAI_57/n2
*1368 maprca/FAI_57/n3
*1369 maprca/FAI_58/n1
*1370 maprca/FAI_58/n2
*1371 maprca/FAI_58/n3
*1372 maprca/FAI_59/n1
*1373 maprca/FAI_59/n2
*1374 maprca/FAI_59/n3
*1375 maprca/FAI_60/n1
*1376 maprca/FAI_60/n2
*1377 maprca/FAI_60/n3
*1378 maprca/FAI_61/n1
*1379 maprca/FAI_61/n2
*1380 maprca/FAI_61/n3
*1381 maprca/FAI_62/n1
*1382 maprca/FAI_62/n2
*1383 maprca/FAI_62/n3
*1384 maprca/FAI_63/n1
*1385 maprca/FAI_63/n2
*1386 maprca/FAI_63/n3
*1387 maprca/FAI_64/n1
*1388 maprca/FAI_64/n2
*1389 maprca/FAI_64/n3
*1390 maprca/FAI_65/n1
*1391 maprca/FAI_65/n2
*1392 maprca/FAI_65/n3
*1393 maprca/FAI_66/n1
*1394 maprca/FAI_66/n2
*1395 maprca/FAI_66/n3
*1396 maprca/FAI_67/n1
*1397 maprca/FAI_67/n2
*1398 maprca/FAI_67/n3
*1399 maprca/FAI_68/n1
*1400 maprca/FAI_68/n2
*1401 maprca/FAI_68/n3
*1402 maprca/FAI_69/n1
*1403 maprca/FAI_69/n2
*1404 maprca/FAI_69/n3
*1405 maprca/FAI_70/n1
*1406 maprca/FAI_70/n2
*1407 maprca/FAI_70/n3
*1408 maprca/FAI_71/n1
*1409 maprca/FAI_71/n2
*1410 maprca/FAI_71/n3
*1411 maprca/FAI_72/n1
*1412 maprca/FAI_72/n2
*1413 maprca/FAI_72/n3
*1414 maprca/FAI_73/n1
*1415 maprca/FAI_73/n2
*1416 maprca/FAI_73/n3
*1417 maprca/FAI_74/n1
*1418 maprca/FAI_74/n2
*1419 maprca/FAI_74/n3
*1420 maprca/FAI_75/n1
*1421 maprca/FAI_75/n2
*1422 maprca/FAI_75/n3
*1423 maprca/FAI_76/n1
*1424 maprca/FAI_76/n2
*1425 maprca/FAI_76/n3
*1426 maprca/FAI_77/n1
*1427 maprca/FAI_77/n2
*1428 maprca/FAI_77/n3
*1429 maprca/FAI_78/n1
*1430 maprca/FAI_78/n2
*1431 maprca/FAI_78/n3
*1432 maprca/FAI_79/n1
*1433 maprca/FAI_79/n2
*1434 maprca/FAI_79/n3
*1435 maprca/FAI_80/n1
*1436 maprca/FAI_80/n2
*1437 maprca/FAI_80/n3
*1438 maprca/FAI_81/n1
*1439 maprca/FAI_81/n2
*1440 maprca/FAI_81/n3
*1441 maprca/FAI_82/n1
*1442 maprca/FAI_82/n2
*1443 maprca/FAI_82/n3
*1444 maprca/FAI_83/n1
*1445 maprca/FAI_83/n2
*1446 maprca/FAI_83/n3
*1447 maprca/FAI_84/n1
*1448 maprca/FAI_84/n2
*1449 maprca/FAI_84/n3
*1450 maprca/FAI_85/n1
*1451 maprca/FAI_85/n2
*1452 maprca/FAI_85/n3
*1453 maprca/FAI_86/n1
*1454 maprca/FAI_86/n2
*1455 maprca/FAI_86/n3
*1456 maprca/FAI_87/n1
*1457 maprca/FAI_87/n2
*1458 maprca/FAI_87/n3
*1459 maprca/FAI_88/n1
*1460 maprca/FAI_88/n2
*1461 maprca/FAI_88/n3
*1462 maprca/FAI_89/n1
*1463 maprca/FAI_89/n2
*1464 maprca/FAI_89/n3
*1465 maprca/FAI_90/n1
*1466 maprca/FAI_90/n2
*1467 maprca/FAI_90/n3
*1468 maprca/FAI_91/n1
*1469 maprca/FAI_91/n2
*1470 maprca/FAI_91/n3
*1471 maprca/FAI_92/n1
*1472 maprca/FAI_92/n2
*1473 maprca/FAI_92/n3
*1474 maprca/FAI_93/n1
*1475 maprca/FAI_93/n2
*1476 maprca/FAI_93/n3
*1477 maprca/FAI_94/n1
*1478 maprca/FAI_94/n2
*1479 maprca/FAI_94/n3
*1480 maprca/FAI_95/n1
*1481 maprca/FAI_95/n2
*1482 maprca/FAI_95/n3
*1483 maprca/FAI_96/n1
*1484 maprca/FAI_96/n2
*1485 maprca/FAI_96/n3
*1486 maprca/FAI_97/n1
*1487 maprca/FAI_97/n2
*1488 maprca/FAI_97/n3
*1489 maprca/FAI_98/n1
*1490 maprca/FAI_98/n2
*1491 maprca/FAI_98/n3
*1492 maprca/FAI_99/n1
*1493 maprca/FAI_99/n2
*1494 maprca/FAI_99/n3
*1495 maprca/FAI_100/n1
*1496 maprca/FAI_100/n2
*1497 maprca/FAI_100/n3
*1498 maprca/FAI_101/n1
*1499 maprca/FAI_101/n2
*1500 maprca/FAI_101/n3
*1501 maprca/FAI_102/n1
*1502 maprca/FAI_102/n2
*1503 maprca/FAI_102/n3
*1504 maprca/FAI_103/n1
*1505 maprca/FAI_103/n2
*1506 maprca/FAI_103/n3
*1507 maprca/FAI_104/n1
*1508 maprca/FAI_104/n2
*1509 maprca/FAI_104/n3
*1510 maprca/FAI_105/n1
*1511 maprca/FAI_105/n2
*1512 maprca/FAI_105/n3
*1513 maprca/FAI_105/n4
*1514 maprca/FAI_106/n1
*1515 maprca/FAI_106/n2
*1516 maprca/FAI_106/n3
*1517 maprca/FAI_106/n4
*1518 maprca/FAI_107/n1
*1519 maprca/FAI_107/n2
*1520 maprca/FAI_107/n3
*1521 maprca/FAI_107/n4
*1522 maprca/FAI_108/n1
*1523 maprca/FAI_108/n2
*1524 maprca/FAI_108/n3
*1525 maprca/FAI_108/n4
*1526 maprca/FAI_109/n1
*1527 maprca/FAI_109/n2
*1528 maprca/FAI_109/n3
*1529 maprca/FAI_109/n4
*1530 maprca/FAI_110/n1
*1531 maprca/FAI_110/n2
*1532 maprca/FAI_110/n3
*1533 maprca/FAI_110/n4
*1534 maprca/FAI_111/n1
*1535 maprca/FAI_111/n2
*1536 maprca/FAI_111/n3
*1537 maprca/FAI_111/n4
*1538 maprca/FAI_112/n1
*1539 maprca/FAI_112/n2
*1540 maprca/FAI_112/n3
*1541 maprca/FAI_112/n4
*1542 maprca/FAI_113/n1
*1543 maprca/FAI_113/n2
*1544 maprca/FAI_113/n3
*1545 maprca/FAI_113/n4
*1546 maprca/FAI_114/n1
*1547 maprca/FAI_114/n2
*1548 maprca/FAI_114/n3
*1549 maprca/FAI_114/n4
*1550 maprca/FAI_115/n1
*1551 maprca/FAI_115/n2
*1552 maprca/FAI_115/n3
*1553 maprca/FAI_115/n4
*1554 maprca/FAI_116/n1
*1555 maprca/FAI_116/n2
*1556 maprca/FAI_116/n3
*1557 maprca/FAI_116/n4
*1558 maprca/FAI_117/n1
*1559 maprca/FAI_117/n2
*1560 maprca/FAI_117/n3
*1561 maprca/FAI_117/n4
*1562 maprca/FAI_118/n1
*1563 maprca/FAI_118/n2
*1564 maprca/FAI_118/n3
*1565 maprca/FAI_118/n4
*1566 maprca/FAI_119/n1
*1567 maprca/FAI_119/n2
*1568 maprca/FAI_119/n3
*1569 maprca/FAI_119/n4
*1570 maprca/FAI_120/n1
*1571 maprca/FAI_120/n2
*1572 maprca/FAI_120/n3
*1573 maprca/FAI_120/n4
*1574 maprca/FAI_121/n1
*1575 maprca/FAI_121/n2
*1576 maprca/FAI_121/n3
*1577 maprca/FAI_121/n4
*1578 maprca/FAI_122/n1
*1579 maprca/FAI_122/n2
*1580 maprca/FAI_122/n3
*1581 maprca/FAI_122/n4
*1582 maprca/FAI_123/n1
*1583 maprca/FAI_123/n2
*1584 maprca/FAI_123/n3
*1585 maprca/FAI_123/n4
*1586 maprca/FAI_124/n1
*1587 maprca/FAI_124/n2
*1588 maprca/FAI_124/n3
*1589 maprca/FAI_124/n4
*1590 maprca/FAI_125/n1
*1591 maprca/FAI_125/n2
*1592 maprca/FAI_125/n3
*1593 maprca/FAI_125/n4
*1594 maprca/FAI_126/n1
*1595 maprca/FAI_126/n2
*1596 maprca/FAI_126/n3
*1597 maprca/FAI_126/n4
*1598 maprca/FAI_127/n1
*1599 maprca/FAI_127/n2
*1600 maprca/FAI_127/n3
*1601 maprca/FAI_127/n4
*1602 maprca/FAI_128/n1
*1603 maprca/FAI_128/n2
*1604 maprca/FAI_128/n3
*1605 maprca/FAI_128/n4
*1606 FE_PHC271_RST
*1607 FE_PHC270_RST
*1608 FE_PHC269_RST
*1609 FE_PHC268_RST
*1610 FE_PHC267_RST
*1611 FE_PHC266_RST
*1612 FE_PHC265_RST
*1613 FE_PHC264_RST
*1614 FE_PHC263_B_3
*1615 FE_PHC262_B_5
*1616 FE_PHC261_B_4
*1617 FE_PHC260_A_107
*1618 FE_PHC259_B_6
*1619 FE_PHC258_B_2
*1620 FE_PHC257_A_109
*1621 FE_PHC256_A_108
*1622 FE_PHC255_B_19
*1623 FE_PHC254_B_13
*1624 FE_PHC253_B_9
*1625 FE_PHC252_B_7
*1626 FE_PHC251_B_1
*1627 FE_PHC250_B_0
*1628 FE_PHC249_A_110
*1629 FE_PHC248_B_18
*1630 FE_PHC247_B_12
*1631 FE_PHC246_B_8
*1632 FE_PHC245_A_122
*1633 FE_PHC244_A_111
*1634 FE_PHC243_A_106
*1635 FE_PHC242_A_105
*1636 FE_PHC241_B_15
*1637 FE_PHC240_B_14
*1638 FE_PHC239_B_11
*1639 FE_PHC238_A_117
*1640 FE_PHC237_A_103
*1641 FE_PHC236_A_38
*1642 FE_PHC235_A_37
*1643 FE_PHC234_A_36
*1644 FE_PHC233_A_34
*1645 FE_PHC232_A_31
*1646 FE_PHC231_B_21
*1647 FE_PHC230_B_17
*1648 FE_PHC229_A_114
*1649 FE_PHC228_A_113
*1650 FE_PHC227_A_112
*1651 FE_PHC226_A_104
*1652 FE_PHC225_A_102
*1653 FE_PHC224_A_35
*1654 FE_PHC223_B_20
*1655 FE_PHC222_B_16
*1656 FE_PHC221_B_10
*1657 FE_PHC220_A_119
*1658 FE_PHC219_A_115
*1659 FE_PHC218_A_39
*1660 FE_PHC217_A_33
*1661 FE_PHC216_A_30
*1662 FE_PHC215_A_17
*1663 FE_PHC214_A_0
*1664 FE_PHC213_B_95
*1665 FE_PHC212_B_24
*1666 FE_PHC211_A_127
*1667 FE_PHC210_A_126
*1668 FE_PHC209_A_125
*1669 FE_PHC208_A_123
*1670 FE_PHC207_A_121
*1671 FE_PHC206_A_120
*1672 FE_PHC205_A_118
*1673 FE_PHC204_A_116
*1674 FE_PHC203_A_101
*1675 FE_PHC202_A_100
*1676 FE_PHC201_A_44
*1677 FE_PHC200_A_43
*1678 FE_PHC199_A_32
*1679 FE_PHC198_A_21
*1680 FE_PHC197_A_20
*1681 FE_PHC196_A_19
*1682 FE_PHC195_B_101
*1683 FE_PHC194_B_94
*1684 FE_PHC193_B_31
*1685 FE_PHC192_B_25
*1686 FE_PHC191_B_23
*1687 FE_PHC190_B_22
*1688 FE_PHC189_A_22